          79
Lattice="  21.4578   0.0000   0.0000   0.0000  21.4578   0.0000   0.0000   0.0000  21.4578 " ConfE="      -3728.9520" DelE="          0.0000"
Cr     3.75013985    2.58700025   -3.70386927       1
Ni    -3.39204042    4.38712105   -1.89324286       2
Ni    -1.61607953   -0.98982745   -5.46507808       3
Ni     1.95436039   -0.96949880   -5.45689906       4
Ni     0.20198856   -4.62907356    3.58384735       5
Ni     1.97297999   -0.99629854    5.30433820       6
Co    -3.37838394    4.40590963    1.73108570       7
Co     1.99522945    4.41224027    3.53988153       8
Cr     3.77810893    2.59356392    3.53411951       9
Ni    -1.61228548   -4.58753808   -1.88189334      10
Ni     1.98645677    4.40032133   -0.04964922      11
Ni    -5.18243773   -0.94946450   -1.85295981      12
Ni    -5.16290655    0.86169085   -0.07124846      13
Co    -1.56872804   -0.93479933    5.32320782      14
Cr     2.02584878   -4.63129577   -1.80744750      15
Cr    -3.41937799    2.62106357   -3.71943969      16
Ni     5.53771094    0.81262513   -0.10736823      17
Cr     5.60210060   -0.98351041    1.65393768      18
Co     5.56680243   -0.98297527   -1.88082166      19
Ni     0.17667725    4.39782707   -1.83170334      20
Co    -1.59718087    4.42224533   -3.72476429      21
Co    -1.59714578    4.38704989    3.53339308      22
Cr    -3.40029915    2.68817150    3.50773294      23
Ni     0.18954555    0.82927838   -5.46715814      24
Co    -3.41577126   -4.59779309   -0.07441921      25
Co    -5.17828911   -2.77515026   -0.09699076      26
Co    -5.17667868   -0.94277014    1.72243562      27
Ni     3.79357633    2.62554392   -0.09306756      28
Cr    -3.40586654    2.84242813   -0.00305880      29
Ni    -1.57638074   -4.55656300    1.71220212      30
Co     1.99941961   -4.57457761    1.71669945      31
Ni    -1.65925778   -2.76935688   -3.68386290      32
Cr     0.20099156    0.81450477    5.26941460      33
Co     3.78857310   -2.73560881    1.75288033      34
Cr    -3.38308961   -0.99490286    3.51800043      35
Ni     0.18230887   -4.58431334   -0.06311452      36
Cr     3.77713298   -2.73407252   -1.94446391      37
Cr     3.67751715   -0.96150777    3.49121747      38
Co     3.72884133   -1.03020158   -3.64973096      39
Ni    -1.58895611   -2.79036441    3.52459628      40
Co    -3.41194458   -0.97353159   -3.65948173      41
Co     2.00451206   -2.86061783   -3.73727712      42
Cr     0.16507855    4.38472323    1.74042200      43
Co     0.22675590    2.67860902   -3.74808664      44
Cr     0.25273283   -3.03499271   -2.24709273      45
Co     1.98783578   -2.78215486    3.53391728      46
Co    -3.38756316   -2.74158721    1.71282589      47
Co    -1.98383801    1.07249904   -0.25116687      48
Ni    -1.55770899   -0.98779538    1.67578366      49
Co     0.25247740   -2.16587081   -0.21176241      50
Co     0.00000000    0.00000000    0.00000000      51
Co     0.23012750    1.03482397    1.98656251      52
Cr    -1.89263601   -2.85601237   -0.12515101      53
Cr     2.32259544   -2.96432729   -0.05076979      54
Cr    -3.38619280    0.82175719    1.79775026      55
Ni    -1.62726862    0.82886147    3.53499054      56
Ni     1.98942614    2.62879542   -1.87257967      57
Co    -3.44799050   -2.78876387   -1.91824438      58
Cr    -3.48925033    0.84080589   -2.04257928      59
Cr     0.22758851    2.65550298    3.55519663      60
Ni     3.75074437    0.81172608    1.71666396      61
Cr     1.98916805    0.90392454   -0.10498561      62
Co     0.12210391    0.96636531   -2.05736870      63
Co     3.72635515    0.79388754   -1.91652874      64
Ni     3.69857868   -0.92516132   -0.08346001      65
Cr     1.98983090    0.79120953   -3.59148713      66
Cr     0.28313821   -2.83793652    1.95829310      67
Co    -1.65079929    0.84083178   -3.67384754      68
Ni     0.15775852   -0.98178288   -3.66863907      69
Co     2.03279729    0.78396618    3.52453933      70
Ni    -3.40356656   -0.95748941   -0.07106798      71
Cr    -1.59342500    2.72390661   -1.94646304      72
Cr    -1.57904598    2.66018827    1.65657113      73
Co     0.19427152   -0.97549113    3.53237743      74
Co     1.99092098    2.65335492    1.74262977      75
Cr    -1.56262966   -1.00299637   -1.80310587      76
Co     1.81630582   -1.04288751   -1.80906332      77
Co     0.09596955    2.62046149   -0.06022702      78
Co     1.82192932   -1.00150460    1.60999348      79
          79
Lattice="  21.4578   0.0000   0.0000   0.0000  21.4578   0.0000   0.0000   0.0000  21.4578 " ConfE="      -3728.7592" DelE="          0.1928"
Cr     3.73134009    2.57227977   -3.69570048       1
Ni    -3.42521680    4.41873856   -2.01723445       2
Ni    -1.61195878   -0.99395967   -5.48524289       3
Ni     1.95839543   -0.97449985   -5.47446861       4
Ni     0.21162516   -4.63365820    3.58954541       5
Ni     1.98721777   -1.00911704    5.31189012       6
Co    -3.44012317    4.47506084    1.90414687       7
Co     1.98765054    4.39465195    3.53213161       8
Cr     3.75438656    2.58567120    3.51705808       9
Ni    -1.59414163   -4.55877558   -1.87303087      10
Ni     1.96189064    4.38625203   -0.05250708      11
Ni    -5.16424790   -0.95163383   -1.84189276      12
Ni    -5.12382461    0.86019669   -0.06577645      13
Co    -1.56534385   -0.95008047    5.33200828      14
Cr     2.01741716   -4.59638231   -1.82261057      15
Cr    -3.42327216    2.62702286   -3.78001662      16
Ni     5.53122449    0.80698423   -0.10610047      17
Cr     5.59182107   -0.98510282    1.66624686      18
Co     5.55826610   -0.98267022   -1.88319256      19
Ni     0.16401585    4.38387121   -1.84374104      20
Co    -1.58760374    4.42435813   -3.75562514      21
Co    -1.57853311    4.39096136    3.56175821      22
Cr    -3.40251929    2.68040661    3.56252277      23
Ni     0.19526291    0.82300536   -5.49248178      24
Co    -3.38257449   -4.56511372   -0.06906849      25
Co    -5.17168519   -2.78618074   -0.09260605      26
Co    -5.17639528   -0.95998463    1.73079801      27
Ni     3.72911322    2.56943333   -0.09021467      28
Cr    -3.14942242    3.32348668    0.01583322      29
Ni    -1.56204376   -4.55049423    1.72340750      30
Co     2.01016842   -4.58381211    1.73148382      31
Ni    -1.64325458   -2.75956677   -3.68302820      32
Cr     0.21223105    0.80191857    5.27841852      33
Co     3.79942323   -2.76102457    1.75563739      34
Cr    -3.38515722   -1.02801199    3.53538200      35
Ni     0.20327116   -4.47884020   -0.05561633      36
Cr     3.80090702   -2.74458078   -1.93859206      37
Cr     3.70879002   -0.97517928    3.51375796      38
Co     3.75407423   -1.03430426   -3.68144200      39
Ni    -1.57672590   -2.81082369    3.54445162      40
Co    -3.40890659   -0.98364364   -3.68217135      41
Co     1.99917235   -2.84889953   -3.73946775      42
Cr     0.16262551    4.37590337    1.74450528      43
Co     0.22994490    2.67535879   -3.76124607      44
Cr     0.23700202   -2.92796779   -2.12354023      45
Co     1.99850874   -2.80672947    3.55325551      46
Co    -3.38544877   -2.76442941    1.73811842      47
Co    -2.55081357    1.23065999   -0.19751092      48
Ni    -1.55613211   -1.03575532    1.73854491      49
Co     0.34973070   -1.79229715   -0.13293984      50
Co    -0.56704744    0.24869980   -0.09630357      51
Co     0.22298402    0.92169270    1.93752985      52
Cr    -1.76498351   -2.79383156   -0.11703575      53
Cr     2.29072631   -2.92957453   -0.05064639      54
Cr    -3.38946442    0.81607007    1.88053544      55
Ni    -1.60422964    0.81175437    3.55047219      56
Ni     1.95920571    2.59815925   -1.85116060      57
Co    -3.41944405   -2.77569501   -1.91044971      58
Cr    -3.52296128    0.82363592   -2.15649595      59
Cr     0.24063635    2.61605305    3.52192986      60
Ni     3.73559815    0.80200015    1.71463262      61
Cr     1.83170730    0.74287810   -0.09430785      62
Co     0.22088116    0.90772248   -2.12478010      63
Co     3.70008213    0.78252850   -1.90882071      64
Ni     3.72323129   -0.93404918   -0.08176836      65
Cr     1.99500274    0.78086983   -3.62367781      66
Cr     0.31384381   -2.84101112    1.94222635      67
Co    -1.62875085    0.84375590   -3.69238315      68
Ni     0.15518009   -0.99847006   -3.69367140      69
Co     2.02091421    0.78047668    3.53232097      70
Ni    -3.39947017   -1.02271060   -0.03939037      71
Cr    -1.59784253    2.69443092   -1.96251922      72
Cr    -1.57691136    2.65497608    1.71878064      73
Co     0.21003580   -1.00785901    3.56128811      74
Co     1.94884348    2.61335006    1.72357666      75
Cr    -1.59909242   -0.93743229   -1.80714576      76
Co     1.89474488   -1.07529398   -1.88370076      77
Co     0.05863891    2.62178992   -0.07031998      78
Co     1.91048433   -1.01209944    1.68969719      79
          79
Lattice="  21.4578   0.0000   0.0000   0.0000  21.4578   0.0000   0.0000   0.0000  21.4578 " ConfE="      -3733.1281" DelE="         -4.1761"
Cr     3.74574188    2.56698875   -3.70057060       1
Ni    -3.39902190    4.36739240   -1.87629362       2
Ni    -1.61038456   -0.99606985   -5.47185643       3
Ni     1.95958409   -0.97708871   -5.47577370       4
Ni     0.20306776   -4.58857538    3.53678023       5
Ni     1.97709439   -1.00867104    5.29126748       6
Co    -3.37462651    4.35175649    1.69868520       7
Co     1.99714693    4.38000699    3.53072864       8
Cr     3.76136877    2.57555950    3.52486337       9
Ni    -1.60394544   -4.56573941   -1.87698657      10
Ni     1.97172647    4.38651943   -0.05328489      11
Ni    -5.16987590   -0.96951198   -1.85709583      12
Ni    -5.17594708    0.80986008   -0.07357072      13
Co    -1.56768303   -0.95382565    5.31383202      14
Cr     1.97579694   -4.56292374   -1.82462924      15
Cr    -3.40756692    2.58542313   -3.64994915      16
Ni     5.53854744    0.80241280   -0.10470967      17
Cr     5.58210684   -1.00075470    1.65962601      18
Co     5.56003483   -0.99362966   -1.88053997      19
Ni     0.19789154    4.37795255   -1.85112695      20
Co    -1.58866067    4.38423002   -3.66745915      21
Co    -1.58018553    4.35077537    3.48025159      22
Cr    -3.38994959    2.65359545    3.48132247      23
Ni     0.19449238    0.82144254   -5.47437468      24
Co    -3.38872927   -4.57092213   -0.07507235      25
Co    -5.17466467   -2.78344924   -0.09469164      26
Co    -5.16088486   -0.95986553    1.72859554      27
Ni     3.75137667    2.58092562   -0.09193755      28
Cr    -1.57513349    4.33786588   -0.06435781      29
Ni    -1.58736675   -4.55277523    1.71660308      30
Co     1.99235643   -4.56533670    1.71844958      31
Ni    -1.63071679   -2.76453032   -3.68220955      32
Cr     0.20239519    0.79380594    5.26250902      33
Co     3.77865918   -2.75335594    1.71345695      34
Cr    -3.38825474   -1.01099938    3.52088419      35
Ni     0.17169659   -4.54017074   -0.05002493      36
Cr     3.75539180   -2.73517846   -1.88216993      37
Cr     3.70346047   -0.98645234    3.49731106      38
Co     3.75120192   -1.03875175   -3.67671432      39
Ni    -1.57888075   -2.79184817    3.51512398      40
Co    -3.41226781   -0.98263642   -3.66714407      41
Co     1.96524730   -2.81798796   -3.69777381      42
Cr     0.20113359    4.38220343    1.75896466      43
Co     0.22907806    2.60798542   -3.68955180      44
Cr     0.16092167   -2.79083318   -1.91063590      45
Co     1.97601541   -2.78725213    3.51276250      46
Co    -3.38153511   -2.76160565    1.70693756      47
Co    -3.36738156    2.59426239   -0.11065901      48
Ni    -1.59365468   -1.01522012    1.71787476      49
Co     0.17051701   -1.03495851   -0.09667556      50
Co    -1.57835190    0.78078795   -0.10391066      51
Co     0.16730914    0.80156260    1.72015925      52
Cr    -1.64694368   -2.76049126   -0.11997193      53
Cr     2.00307993   -2.78751618   -0.05475983      54
Cr    -3.34280612    0.82339228    1.70521064      55
Ni    -1.60517359    0.79969131    3.52686133      56
Ni     1.98972969    2.58211423   -1.87748450      57
Co    -3.41513193   -2.78545021   -1.89281108      58
Cr    -3.38123209    0.80777447   -1.91050863      59
Cr     0.24652842    2.56122860    3.48792742      60
Ni     3.74926569    0.80652451    1.71159760      61
Cr     1.89690297    0.78861163   -0.09952668      62
Co     0.15823082    0.78815365   -1.89319759      63
Co     3.73164216    0.78014800   -1.90995765      64
Ni     3.72641457   -0.94542015   -0.08111012      65
Cr     1.98709459    0.77474851   -3.61153007      66
Cr     0.28060777   -2.75853353    1.78383548      67
Co    -1.60371891    0.81365953   -3.66526122      68
Ni     0.17173681   -0.99751288   -3.69872016      69
Co     1.98498870    0.78001230    3.49409182      70
Ni    -3.39008275   -0.99434712   -0.06131578      71
Cr    -1.57920703    2.57849375   -1.92024435      72
Cr    -1.57600107    2.56438581    1.68725570      73
Co     0.19806258   -0.98955595    3.52145198      74
Co     1.95196601    2.59513453    1.73422142      75
Cr    -1.61601189   -1.00663629   -1.87171181      76
Co     1.90832017   -1.05081450   -1.88359789      77
Co     0.19115035    2.58227045   -0.08399123      78
Co     1.94178097   -0.98962806    1.69803034      79
