          79
Lattice="  21.4578   0.0000   0.0000   0.0000  21.4578   0.0000   0.0000   0.0000  21.4578 " ConfE="      -3733.4788" DelE="          0.0000"
Ni     1.79568267    5.36149651    0.00114023       1
Ni     0.00368808   -1.77867994    5.33143810       2
Ni    -1.76939196    0.01798499    5.33979880       3
Ni    -0.00029353    5.34188228    1.76836710       4
Ni    -5.33528101    1.78895794   -0.02574284       5
Ni     0.00626258    3.58382146    3.57310296       6
Ni    -3.58313908   -0.01249558    3.56390203       7
Ni     0.05072112    3.59805547   -3.58731292       8
Ni     3.57640185    0.00768985   -3.60468478       9
Co     1.83095704    0.04593206    5.31017772      10
Cr    -5.29458662    0.01958690   -1.80057958      11
Cr    -1.80292673    5.36088119   -0.01469399      12
Co    -5.34916250   -0.02047653    1.74467286      13
Co     5.36293660    1.75571625   -0.00835957      14
Cr     5.39356749   -1.80108812   -0.03192894      15
Co     0.03005349   -1.77398620   -5.40899228      16
Cr    -1.70497838    0.02437486   -5.34885621      17
Co     0.02679909   -5.34201688    1.79850542      18
Co    -1.77842440   -5.35383852   -0.00079591      19
Co     1.81996874   -5.33599720    0.00002360      20
Co     0.02027351   -5.36672057   -1.80379344      21
Co     5.39284241   -0.01286649    1.75558164      22
Cr     0.00652923    1.80884303    5.32340774      23
Cr    -5.37082911   -1.81430488   -0.06388411      24
Co     0.02709680    5.41797975   -1.79707108      25
Co     1.77663232    0.03272611   -5.35614092      26
Co     0.03555262    1.80814717   -5.37515824      27
Cr     5.39341927   -0.02640664   -1.78428045      28
Cr     0.02782084   -3.58694030    3.48538393      29
Cr     3.61306433    3.52051776   -0.00245777      30
Co    -3.51260342    3.58807372   -0.02702660      31
Cr    -3.57768792   -3.62852667   -0.00360456      32
Cr     3.62781561   -3.53496152   -0.01762877      33
Co     0.02078579   -3.55635757   -3.60322275      34
Cr     3.62161946    0.05214059    3.52236042      35
Cr    -3.55237657    0.04470816   -3.61385323      36
Ni    -1.79356148   -1.81032160    3.54506759      37
Ni     1.80921091   -1.75894717    3.56846980      38
Ni    -3.55581629    1.78140470    1.78214595      39
Cr    -1.85453449   -3.68407775    1.78527918      40
Ni     1.80482611   -3.54592002   -1.79479226      41
Ni     1.80554328    3.58362940   -1.79407379      42
Ni    -3.52506104   -1.78925408   -1.79793539      43
Ni    -1.79115134    3.56441931    1.79025250      44
Ni     1.78807171    1.84139782    3.57597382      45
Co     1.82305691    3.56998908    1.74384261      46
Co    -3.56967951    1.77818442   -1.80874294      47
Cr     1.85953982   -3.61458906    1.77481967      48
Co    -1.78113213   -3.59459721   -1.79947122      49
Co     3.58796455    1.76481223    1.75638360      50
Cr     3.57220732   -1.71405447    1.74960661      51
Co    -1.77037082   -1.77781680   -3.59677111      52
Cr    -1.78982257    1.80823204    3.60902541      53
Cr    -3.66446730   -1.79774874    1.74448892      54
Cr     3.57831402    1.72343788   -1.76696415      55
Co     3.60077153   -1.76259009   -1.82722557      56
Co     1.81294890   -1.78848441   -3.62525213      57
Co    -1.77303533    1.79072465   -3.57488457      58
Co    -1.75206044    3.59709808   -1.80947272      59
Co     1.81924012    1.80226859   -3.57176653      60
Cr     0.07751208   -1.78128709    1.80450906      61
Ni    -1.75915767   -1.81454902    0.01491845      62
Ni     0.00000000    0.00000000    0.00000000      63
Ni    -1.76942687   -0.01186262    1.79084371      64
Ni     0.01109377   -3.58495571    0.00845585      65
Co     1.78992977    1.78338847   -0.02171853      66
Cr    -1.77997095    1.80048492   -0.07894337      67
Co     1.81360948   -1.78669546    0.02319602      68
Co     0.01815216   -1.78472283   -1.79935647      69
Cr     1.81099909    0.10016549    1.78297345      70
Co    -1.75545098    0.00015229   -1.83065195      71
Co    -0.00399494    1.80338137    1.77217401      72
Co     0.02977195    1.76929471   -1.79884854      73
Cr     1.75594267   -0.03447384   -1.82078435      74
Co     0.02748483    0.03999992    3.54426458      75
Cr    -0.04144157    3.56837779   -0.05106467      76
Cr    -3.49332314    0.02587854   -0.02916890      77
Cr     0.03019052   -0.01908789   -3.57997885      78
Co     3.59453382   -0.01464993   -0.01912886      79
          79
Lattice="  21.4578   0.0000   0.0000   0.0000  21.4578   0.0000   0.0000   0.0000  21.4578 " ConfE="      -3729.6983" DelE="          3.7805"
Ni     1.79163984    5.35522898   -0.00326086       1
Ni     0.00118902   -1.77747598    5.39561898       2
Ni    -1.77798593    0.03601013    5.39494750       3
Ni     0.00101055    5.33565828    1.77088899       4
Ni    -5.29859714    1.75864987   -0.02572071       5
Ni     0.00302199    3.59280120    3.59053736       6
Ni    -3.61171911   -0.02207334    3.61584865       7
Ni     0.04886759    3.61050141   -3.60742210       8
Ni     3.60894791    0.01983282   -3.65524224       9
Co     1.84346577    0.06455807    5.37063057      10
Cr    -5.25930028    0.01269418   -1.80706453      11
Cr    -1.79257807    5.35329617   -0.01461623      12
Co    -5.30836249   -0.04611231    1.74334334      13
Co     5.36909265    1.76167410   -0.00176312      14
Cr     5.37208594   -1.78015449   -0.03285217      15
Co     0.03002834   -1.79042243   -5.47437082      16
Cr    -1.75071331    0.03171698   -5.42225941      17
Co     0.03886063   -5.18828471    1.72897575      18
Co    -1.80003034   -5.38638451   -0.01969781      19
Co     1.82996515   -5.36456321    0.00583150      20
Co     0.00346562   -5.29624058   -1.75965839      21
Co     5.31886777   -0.05070207    1.76555069      22
Cr    -0.01466424    1.83886498    5.38497292      23
Cr    -5.34468795   -1.81076970   -0.04891935      24
Co     0.02820055    5.42557145   -1.80359994      25
Co     1.79540899    0.05124749   -5.40935780      26
Co     0.03481239    1.84849885   -5.44224607      27
Cr     5.40038908   -0.01776276   -1.81363735      28
Cr    -0.00329132   -3.57666207    3.53093932      29
Cr     3.58167130    3.49538837   -0.00830005      30
Co    -3.47855523    3.57372342   -0.02779537      31
Cr    -3.53486237   -3.55476042   -0.03034789      32
Cr     3.61332587   -3.47505301   -0.11609046      33
Co     0.00795975   -3.59858990   -3.69816081      34
Cr     3.64817255    0.05670002    3.59502331      35
Cr    -3.57011865    0.04834287   -3.66330126      36
Ni    -1.81364049   -1.79994390    3.65307222      37
Ni     1.83609384   -1.75345244    3.65633670      38
Ni    -3.54584800    1.77802739    1.78633104      39
Cr    -1.97116344   -3.75110355    2.01247031      40
Ni     1.81530877   -3.55631043   -1.97803515      41
Ni     1.79066799    3.57252667   -1.80893573      42
Ni    -3.50386771   -1.78652461   -1.81913732      43
Ni    -1.76852951    3.53971299    1.79290429      44
Ni     1.79213499    1.90995295    3.66452223      45
Co     1.81395528    3.56775197    1.74895062      46
Co    -3.53790024    1.76486402   -1.80489842      47
Cr     2.02720991   -3.76726658    2.18231187      48
Co    -1.87677590   -3.63789675   -2.03527969      49
Co     3.56557585    1.77136344    1.74820853      50
Cr     3.26889728   -1.70929902    1.56801330      51
Co    -1.77344333   -1.79600800   -3.68790865      52
Cr    -1.79381018    1.83594892    3.65732868      53
Cr    -3.48815060   -1.79102797    1.66577250      54
Cr     3.54923107    1.71417572   -1.77028284      55
Co     3.53853766   -1.72677888   -1.83770544      56
Co     1.81620069   -1.77471906   -3.71172372      57
Co    -1.77374429    1.84937933   -3.65402059      58
Co    -1.73239763    3.58496439   -1.81836463      59
Co     1.81092790    1.83749662   -3.63610804      60
Cr     0.08053050   -1.76786385    1.94392108      61
Ni    -0.98370891   -0.70484630   -0.02842204      62
Ni     1.36341053   -0.77378976    0.00132894      63
Ni    -1.77930610    0.05269981    1.98520963      64
Ni    -0.99385822   -3.09882453    0.04440813      65
Co     1.72602057    1.74792693   -0.04072556      66
Cr    -1.70834653    1.73846080   -0.08760542      67
Co     1.31702660   -3.08105625    0.27231190      68
Co     0.03195981   -1.83743067   -1.92656265      69
Cr     1.82944007    0.23820757    2.00554146      70
Co    -1.79514700    0.02729443   -2.08406622      71
Co     0.01923113    1.74720583    1.76422190      72
Co     0.01307579    1.70331502   -1.80153420      73
Cr     1.72324927    0.06668790   -2.07636545      74
Co     0.04973998    0.05930912    3.63525051      75
Cr    -0.03954821    3.56325184   -0.05724149      76
Cr    -3.41259724   -0.03520272   -0.02527377      77
Cr    -0.01109248   -0.00175527   -3.72706128      78
Co     3.62942571    0.03846207   -0.06387170      79
          79
Lattice="  21.4578   0.0000   0.0000   0.0000  21.4578   0.0000   0.0000   0.0000  21.4578 " ConfE="      -3733.1281" DelE="          0.3507"
Ni     1.79555942    5.36138428    0.00042587       1
Ni     0.00480204   -1.77819646    5.33297476       2
Ni    -1.76921410    0.02000800    5.34282087       3
Ni    -0.00015141    5.34239441    1.76729438       4
Ni    -5.33443735    1.78797567   -0.02521706       5
Ni     0.00674123    3.58616371    3.57394617       6
Ni    -3.58233344   -0.01062101    3.56535121       7
Ni     0.05034782    3.59990035   -3.58916461       8
Ni     3.57536125    0.00529034   -3.59968657       9
Co     1.83155597    0.04561968    5.30878203      10
Cr    -5.29448845    0.01924111   -1.79987415      11
Cr    -1.80269616    5.36055844   -0.01526994      12
Co    -5.34757969   -0.02069785    1.74527259      13
Co     5.36117353    1.75257558   -0.00923477      14
Cr     5.39838208   -1.79771625   -0.03613725      15
Co     0.03076147   -1.77406648   -5.40930350      16
Cr    -1.70764465    0.02382523   -5.35106129      17
Co     0.02688070   -5.34737648    1.79971764      18
Co    -1.76097884   -5.34421300    0.00306278      19
Co     1.81349828   -5.32196759    0.00520259      20
Co     0.01757079   -5.35274211   -1.79049896      21
Co     5.39419762   -0.01132669    1.75685864      22
Cr     0.00669252    1.80955607    5.32324814      23
Cr    -5.37019393   -1.81346265   -0.06094770      24
Co     0.02663171    5.41840502   -1.79720390      25
Co     1.77697776    0.03045776   -5.35059780      26
Co     0.03562494    1.81014241   -5.37703435      27
Cr     5.39924966   -0.02423618   -1.78775075      28
Cr     0.02591464   -3.58885836    3.48476388      29
Cr     3.60912126    3.51327268   -0.00239393      30
Co    -3.51266043    3.58814208   -0.02709677      31
Cr    -3.56881417   -3.62602682   -0.00164630      32
Cr     3.63157702   -3.53870977   -0.01818231      33
Co     0.01936454   -3.56409545   -3.61496352      34
Cr     3.62340633    0.05600532    3.52474231      35
Cr    -3.55175134    0.04566333   -3.61568118      36
Ni    -1.79362829   -1.80499786    3.55331595      37
Ni     1.80795805   -1.75753256    3.56495329      38
Ni    -3.55477668    1.78189202    1.78249643      39
Cr    -1.83602244   -3.67551237    1.77929807      40
Ni     1.79843607   -3.55224198   -1.79696366      41
Ni     1.80528170    3.58600895   -1.79634348      42
Ni    -3.52960220   -1.78946428   -1.80140973      43
Ni    -1.79122931    3.56623707    1.79029464      44
Ni     1.78901302    1.84395697    3.57646824      45
Co     1.82295989    3.56806257    1.74158036      46
Co    -3.56962715    1.77820461   -1.80905155      47
Cr     1.84768840   -3.61730439    1.77010270      48
Co    -1.77213069   -3.59633968   -1.78869041      49
Co     3.58898399    1.76575855    1.75607536      50
Cr     3.58443356   -1.70850661    1.75792952      51
Co    -1.76714228   -1.78451051   -3.59135692      52
Cr    -1.78762656    1.81004684    3.60974181      53
Cr    -3.65357704   -1.79570054    1.74440722      54
Cr     3.58237236    1.72887005   -1.76922778      55
Co     3.60700159   -1.76783967   -1.83405196      56
Co     1.80682683   -1.79144008   -3.61306506      57
Co    -1.77437095    1.79311087   -3.57640607      58
Co    -1.75268279    3.59862348   -1.81024095      59
Co     1.81833230    1.80255383   -3.57138572      60
Cr     0.05688416   -1.79044711    1.80685831      61
Ni    -0.00134136    0.00375456   -0.00140366      62
Ni     1.80185471   -1.78087918   -0.01803656      63
Ni    -1.76508247   -0.00683435    1.79268902      64
Ni    -1.75993303   -1.80888604    0.01010509      65
Co     1.79129490    1.77804998   -0.02578171      66
Cr    -1.77915513    1.80435805   -0.08004717      67
Co     0.01447072   -3.56776527    0.05848003      68
Co     0.00531177   -1.79723632   -1.80242511      69
Cr     1.81050784    0.10385222    1.78826469      70
Co    -1.75643779   -0.00040763   -1.83345331      71
Co    -0.00420822    1.80984054    1.77297026      72
Co     0.02665273    1.77451928   -1.80149191      73
Cr     1.74794850   -0.02302684   -1.83861636      74
Co     0.02849709    0.04789353    3.54981754      75
Cr    -0.03825725    3.56510199   -0.05160225      76
Cr    -3.48931810    0.02645720   -0.02944539      77
Cr     0.02080451   -0.01626220   -3.58924328      78
Co     3.59975664   -0.01034557   -0.02470775      79
