          79
Lattice="  21.4578   0.0000   0.0000   0.0000  21.4578   0.0000   0.0000   0.0000  21.4578 " ConfE="      -3733.3723" DelE="          0.0000"
Ni    -1.67518144    5.40191100    0.02345521       1
Ni     0.10404577    5.40121308   -1.76494294       2
Ni     0.08008684    5.38585334    1.81581041       3
Ni    -5.27021247    0.04941867   -1.78624478       4
Ni     5.46146592    1.81679232    0.03717178       5
Ni    -5.25394702    0.00863720    1.81280313       6
Ni    -3.49056515   -0.01253668    3.63037174       7
Co     1.89342694    5.39883641    0.08004754       8
Cr    -5.26604792    1.84000250   -0.00354471       9
Ni     3.63969435    0.05006954   -3.57583062      10
Ni    -3.47134975   -3.55361995    0.01862320      11
Co     5.45232430    0.01707749    1.80802176      12
Cr    -5.26329355   -1.77510732    0.01251846      13
Cr     0.12118593   -1.81696841    5.38244703      14
Cr     0.08445694    1.89976283    5.39835712      15
Cr     0.04073599   -1.78906296   -5.33817590      16
Cr     0.05936729    1.86314841   -5.32813229      17
Co     0.07461797   -5.35029932    1.79278517      18
Cr     0.10269810   -5.34896343   -1.74284934      19
Cr    -1.69051235   -0.00654199   -5.32770398      20
Co     1.83510480   -5.35234918   -0.00315357      21
Cr     1.85295030    0.08835454    5.36872209      22
Co     5.48486744    0.04479103   -1.80215210      23
Co     5.41481868   -1.77550300   -0.00494251      24
Cr    -1.66504961    0.00829460    5.41908515      25
Cr     1.76857022    0.04743117   -5.34397838      26
Cr    -1.62236894   -5.32472829    0.04455119      27
Cr     3.61723931    3.57416464    0.08095050      28
Co    -3.50245745    3.59940709    0.03642009      29
Co     0.08113504    3.59398083   -3.57914918      30
Co     0.06525939    3.57994935    3.59138604      31
Co    -3.48111645    0.04882511   -3.58262608      32
Cr     3.62815374   -3.56178694    0.01566500      33
Co     0.08614799   -3.52735549    3.61547022      34
Co     0.08138994   -3.58796944   -3.54210474      35
Cr     3.65987610   -0.00140395    3.55795873      36
Ni     1.87646674    3.60959319   -1.74224355      37
Ni     1.85720472   -3.55869881    1.82425815      38
Ni    -3.47483464   -1.76574661   -1.77395053      39
Ni    -1.73052427    1.80380421    3.61420757      40
Ni     1.85577678   -1.76984073   -3.57275079      41
Co    -1.70231787    3.58065536    1.81560716      42
Co    -1.69161634    3.61268821   -1.76579778      43
Cr    -3.43579950    1.82116212   -1.75085336      44
Cr     1.85410622    3.52574925    1.83478852      45
Cr     3.66809056    1.76385009    1.80975000      46
Co    -3.48634849    1.80195482    1.78648623      47
Co    -1.68816436   -1.75284651   -3.59968671      48
Co     1.83768308   -3.54678550   -1.77909408      49
Cr     1.90146910   -1.73985424    3.59047814      50
Cr    -1.70226871    1.82084258   -3.53596510      51
Co     1.87353476    1.78345546    3.58188996      52
Co     3.66158880    1.81564975   -1.77892915      53
Co     3.66849581   -1.77935510    1.78099954      54
Co    -1.71392022   -1.77272357    3.67265594      55
Co     3.64535267   -1.74372928   -1.77447014      56
Cr     1.79168116    1.84164028   -3.51140428      57
Cr    -1.67522325   -3.51186368   -1.82320966      58
Co    -1.70973779   -3.55921914    1.82207383      59
Co    -3.49990687   -1.80069611    1.82536117      60
Ni     0.06896505   -1.76017187    1.81420806      61
Ni     1.83651442    1.78736567   -0.00251033      62
Ni     0.07354959    0.01536997    3.59194659      63
Ni     0.07812319   -3.53115464    0.02384448      64
Co    -1.70433064    0.02938246   -1.79397344      65
Cr     1.87048204   -1.75371625   -0.03243309      66
Co     1.86051396    0.02534522    1.75515295      67
Cr     0.00000000    0.00000000    0.00000000      68
Co     0.06726849   -1.76650443   -1.79476187      69
Co     0.04347335    1.82812325   -1.74866673      70
Cr     0.02426510    1.78795092    1.78852018      71
Cr    -1.72521596    1.80677886    0.02449938      72
Co     0.09006669    3.58840937    0.04180254      73
Co    -1.72886506    0.00126020    1.82058082      74
Cr     1.83516048    0.02263339   -1.78150494      75
Co    -1.69919010   -1.75482158   -0.00100889      76
Co    -3.48193399    0.01771236    0.02356968      77
Cr     3.69977633    0.02185365   -0.02083734      78
Co     0.05874805    0.04448843   -3.54627274      79
          79
Lattice="  21.4578   0.0000   0.0000   0.0000  21.4578   0.0000   0.0000   0.0000  21.4578 " ConfE="      -3729.2937" DelE="          4.0786"
Ni    -1.69915656    5.47127237    0.04657195       1
Ni     0.09134426    5.47842712   -1.75786739       2
Ni     0.06809122    5.45341972    1.84166068       3
Ni    -5.25931806    0.04830956   -1.78842891       4
Ni     5.44715376    1.83002590    0.03454866       5
Ni    -5.24563237    0.00228519    1.80916827       6
Ni    -3.46983413   -0.02094763    3.61536750       7
Co     1.89365595    5.47023821    0.11872641       8
Cr    -5.20139354    1.84900004   -0.01726016       9
Ni     3.60930448    0.03910207   -3.52751496      10
Ni    -3.50951347   -3.59807126    0.01377164      11
Co     5.44746159    0.01697568    1.80049730      12
Cr    -5.24983356   -1.78829492    0.00230350      13
Cr     0.12762353   -1.81954320    5.36097702      14
Cr     0.09135980    1.89577391    5.38540929      15
Cr    -0.03509218   -1.57080612   -5.13120501      16
Cr     0.05089397    1.72275478   -5.18244225      17
Co     0.06952437   -5.39359930    1.80697504      18
Cr     0.10605586   -5.40622450   -1.74719800      19
Cr    -1.78707921   -0.00875730   -5.40325097      20
Co     1.84910195   -5.40440063    0.02092390      21
Cr     1.83501092    0.09662172    5.33400357      22
Co     5.46927442    0.03978956   -1.78263286      23
Co     5.38281876   -1.78124449   -0.01488161      24
Cr    -1.64543749    0.00579197    5.39716988      25
Cr     1.81947265    0.02797061   -5.39736789      26
Cr    -1.64574361   -5.36322578    0.05075847      27
Cr     3.67487547    3.66224193    0.10863716      28
Co    -3.52917161    3.65086168    0.03089991      29
Co     0.08182969    3.68818835   -3.59320476      30
Co     0.07405779    3.54685769    3.52600551      31
Co    -3.43510706    0.05587206   -3.57496762      32
Cr     3.67588765   -3.64597592    0.02160172      33
Co     0.08670323   -3.52809802    3.60452744      34
Co     0.09270910   -3.68396498   -3.59031883      35
Cr     3.63413017    0.00303393    3.52067470      36
Ni     1.89897729    3.75246289   -1.69977828      37
Ni     1.85596500   -3.62309312    1.85218385      38
Ni    -3.41337923   -1.73666567   -1.77921936      39
Ni    -1.70924447    1.80066420    3.58014938      40
Ni     1.90273817   -1.99776663   -3.61660322      41
Co    -1.71569827    3.63630468    1.84255051      42
Co    -1.71907429    3.73517054   -1.75745615      43
Cr    -3.24657938    1.68876776   -1.78301056      44
Cr     1.85255395    3.61813278    1.89275158      45
Cr     3.69920733    1.80093112    1.83736718      46
Co    -3.49336029    1.79732968    1.80551343      47
Co    -1.73411293   -1.97273894   -3.60538211      48
Co     1.83892421   -3.66240712   -1.76997690      49
Cr     1.89604959   -1.74550392    3.52910331      50
Cr    -1.76675809    2.16167521   -3.62444176      51
Co     1.84195998    1.78656959    3.50579826      52
Co     3.58783037    1.80429361   -1.73514714      53
Co     3.67454276   -1.79596779    1.78311096      54
Co    -1.69961769   -1.78019967    3.64706046      55
Co     3.48413864   -1.67974723   -1.70573569      56
Cr     1.93676898    2.12624171   -3.44792203      57
Cr    -1.67765733   -3.60562545   -1.81219579      58
Co    -1.70503401   -3.59207232    1.83241268      59
Co    -3.49655318   -1.81804698    1.82211453      60
Ni     0.07132947   -1.73499751    1.72232635      61
Ni     1.87626362    2.02631013    0.06998297      62
Ni     0.07521148    0.00974573    3.55562541      63
Ni     0.08604206   -3.61579644    0.02405654      64
Co    -1.08400487    0.17355596   -0.73331542      65
Cr     1.92858693   -2.00410807    0.04659486      66
Co     1.84807377    0.03277963    1.69018712      67
Cr     1.27388557   -0.02450377   -0.82126644      68
Co     0.06296524   -1.84557626   -1.82588530      69
Co     0.05170179    2.00095675   -1.75391518      70
Cr    -0.03957275    1.62974937    1.57289136      71
Cr    -1.85469336    2.06072732    0.12211414      72
Co     0.07070732    3.70485150    0.07298684      73
Co    -1.71397252   -0.00956314    1.75619338      74
Cr     1.17713955    0.09346401   -3.09617440      75
Co    -1.71916194   -1.95223519   -0.00508714      76
Co    -3.47791105   -0.00591440    0.02141976      77
Cr     3.68731610    0.07503847   -0.00255023      78
Co    -1.00887717    0.15193903   -3.12291218      79
          79
Lattice="  21.4578   0.0000   0.0000   0.0000  21.4578   0.0000   0.0000   0.0000  21.4578 " ConfE="      -3733.1281" DelE="          0.2443"
Ni    -1.67434887    5.39790480    0.02438278       1
Ni     0.10509418    5.39798995   -1.76566760       2
Ni     0.08058501    5.38401339    1.81720390       3
Ni    -5.26873368    0.05085679   -1.78649060       4
Ni     5.44757800    1.81385493    0.03902749       5
Ni    -5.25429888    0.00854016    1.81213766       6
Ni    -3.48462972   -0.01088160    3.62365248       7
Co     1.89544856    5.39948506    0.08364201       8
Cr    -5.27644803    1.84366777   -0.00213379       9
Ni     3.63080018    0.05068643   -3.57074485      10
Ni    -3.47138852   -3.55238532    0.02084965      11
Co     5.44083681    0.01817283    1.80616321      12
Cr    -5.26761721   -1.78085943    0.01274410      13
Cr     0.12299171   -1.81929995    5.38365009      14
Cr     0.08581115    1.90185666    5.40181208      15
Cr     0.04170520   -1.80363995   -5.35609724      16
Cr     0.06134993    1.87289942   -5.34800255      17
Co     0.07502179   -5.34754685    1.79546280      18
Cr     0.10066973   -5.34398896   -1.75082443      19
Cr    -1.71056128    0.00080228   -5.34890348      20
Co     1.83455453   -5.34954783   -0.00265664      21
Cr     1.85973687    0.08949783    5.37147691      22
Co     5.47876452    0.04388780   -1.79939736      23
Co     5.40791728   -1.77594397   -0.00304314      24
Cr    -1.66781253    0.00755733    5.42040570      25
Cr     1.77758810    0.04576695   -5.35683944      26
Cr    -1.62488933   -5.32759441    0.04418586      27
Cr     3.62642220    3.59238169    0.08564358      28
Co    -3.49906764    3.59111531    0.03714132      29
Co     0.08629132    3.57101104   -3.58223996      30
Co     0.06659822    3.57605442    3.58776568      31
Co    -3.46519597    0.05734501   -3.58354979      32
Cr     3.63367457   -3.57073391    0.01844263      33
Co     0.08880160   -3.52396314    3.61874998      34
Co     0.08037119   -3.57684146   -3.54596200      35
Cr     3.67368539    0.00028819    3.57741014      36
Ni     1.88013646    3.61288505   -1.73797942      37
Ni     1.85960371   -3.55844474    1.82883866      38
Ni    -3.47405196   -1.76328219   -1.77270672      39
Ni    -1.72603805    1.80175900    3.61214373      40
Ni     1.85752565   -1.76938919   -3.57270376      41
Co    -1.69804396    3.57252373    1.81205548      42
Co    -1.68907175    3.60814685   -1.76348696      43
Cr    -3.43234134    1.82182968   -1.73751390      44
Cr     1.85767567    3.52687450    1.84431961      45
Cr     3.67455297    1.77376826    1.82579663      46
Co    -3.48113447    1.79759682    1.78009408      47
Co    -1.68742770   -1.75006224   -3.60507720      48
Co     1.83741865   -3.54673404   -1.77698963      49
Cr     1.90688034   -1.74070533    3.59536508      50
Cr    -1.70377972    1.83386872   -3.52861451      51
Co     1.87505995    1.78765887    3.58883964      52
Co     3.66102579    1.82013240   -1.77730471      53
Co     3.67133456   -1.78330967    1.78624378      54
Co    -1.71022596   -1.76976083    3.67202742      55
Co     3.64596755   -1.75043809   -1.77510678      56
Cr     1.79744269    1.84613219   -3.50983791      57
Cr    -1.67329313   -3.50861062   -1.81229348      58
Co    -1.70712589   -3.55473767    1.82304842      59
Co    -3.49682737   -1.79833524    1.82485698      60
Ni     0.07373938   -1.75423754    1.81658372      61
Ni     1.85066456    1.80329479    0.01386082      62
Ni     0.07715802    0.01712526    3.59551083      63
Ni     0.07981056   -3.53360960    0.03305861      64
Co     0.08213014    0.00656436    0.00048233      65
Cr     1.86845437   -1.75632315   -0.02035419      66
Co     1.88230490    0.03016478    1.77949543      67
Cr     1.84211954    0.02132552   -1.75979471      68
Co     0.06735319   -1.77315707   -1.79517356      69
Co     0.05228107    1.82846220   -1.73705041      70
Cr     0.02325182    1.77497760    1.77493103      71
Cr    -1.70389218    1.78174224    0.02430410      72
Co     0.09363561    3.60055827    0.04216166      73
Co    -1.71938492    0.00076812    1.81112227      74
Cr     0.04688027    0.02986780   -3.51775972      75
Co    -1.70533215   -1.76609101   -0.00141614      76
Co    -3.49183897    0.01349393    0.02219046      77
Cr     3.67047943    0.01439613   -0.03008991      78
Co    -1.69393522    0.02393797   -1.79575611      79
