          79
Lattice="  21.4578   0.0000   0.0000   0.0000  21.4578   0.0000   0.0000   0.0000  21.4578 " ConfE="      -3733.1281" DelE="          0.0000"
Ni     1.80010846    5.38333159    0.00627533       1
Ni     0.04517692    5.39708820   -1.78685539       2
Ni    -1.79944106   -0.00776906    5.35548758       3
Ni     1.80227360    0.03960214    5.36749454       4
Ni    -1.74854973   -5.34102710   -0.00563309       5
Co     0.02297026    1.84484405    5.35259092       6
Cr     0.02034822   -1.79180175    5.28704383       7
Ni     3.57906339   -3.55951413    0.01779525       8
Ni    -3.54919916    0.04999073   -3.59803393       9
Co     0.01269617   -5.34808957    1.79991524      10
Cr     0.09445850   -5.32840194   -1.76673195      11
Cr    -0.04341276    5.36230501    1.75120981      12
Co    -1.75793607    5.39564913   -0.00777164      13
Cr     5.38988792    0.01453024   -1.84102504      14
Cr    -5.29951695    1.81705514    0.00170563      15
Co     0.03247884   -1.75086913   -5.41632238      16
Cr     0.01632164    1.83366619   -5.34006800      17
Co    -5.35794744   -1.78883303   -0.02338298      18
Cr     5.39307039   -0.00051036    1.76646979      19
Cr     1.76634669    0.02921657   -5.32822706      20
Cr     5.39384510    1.77306270    0.01532928      21
Cr    -5.37576237   -0.01576670    1.74056009      22
Co    -1.74520647    0.05667922   -5.39499159      23
Co     5.39047776   -1.78392116   -0.02468160      24
Cr    -5.32724571    0.02593356   -1.76025986      25
Co     1.79431309   -5.34909592   -0.01590771      26
Cr    -3.56563216   -3.55312105    0.02960250      27
Co     0.03024909    3.60766049   -3.57471099      28
Cr     3.57900793    0.08832462    3.56081969      29
Cr    -3.65953654    0.00193292    3.54637304      30
Cr     3.57714964    3.52611024    0.03307261      31
Cr     3.56183936    0.02092915   -3.57084441      32
Co    -0.00965910    3.60686005    3.57581305      33
Co    -3.57471358    3.57527397   -0.00687160      34
Co     0.02164360   -3.55069925    3.60188190      35
Cr     0.04626124   -3.50954629   -3.62333030      36
Ni    -1.77066076    1.79023648    3.59521339      37
Ni    -1.75183795   -3.55302764   -1.79037387      38
Ni     3.56994961    1.80296779   -1.79731592      39
Ni    -1.75440895   -1.76392879   -3.58404724      40
Ni     1.79933748   -3.53457000   -1.77776097      41
Co     1.81322008    3.60031760   -1.76899814      42
Cr    -1.84091408   -1.87850338    3.58157625      43
Cr     1.80506961    1.90094507    3.59078495      44
Cr     1.84207159   -1.82052997    3.57242694      45
Co     1.78593894    3.57541040    1.77687874      46
Co    -1.77964011    3.59055793   -1.77419769      47
Co    -1.76645895   -3.54726393    1.80550530      48
Co     1.78704991   -1.77415536   -3.60571782      49
Cr    -3.49470615    1.82385353    1.77293817      50
Co     1.77170953    1.82833449   -3.54829892      51
Cr    -3.57440892   -1.82882286    1.80095813      52
Co     3.59404009    1.78694220    1.77777602      53
Cr    -1.78434179    3.60161096    1.72261123      54
Cr     3.58799362   -1.75676451   -1.83114752      55
Cr    -3.55628679    1.84288118   -1.81393562      56
Cr    -3.54796036   -1.78141817   -1.79860520      57
Cr     3.62587308   -1.74148164    1.78411154      58
Cr    -1.71258491    1.82101765   -3.54899538      59
Co     1.80811115   -3.52547011    1.80719627      60
Ni    -0.00678833    1.80091211    1.80137755      61
Ni    -1.76533922   -0.01193439    1.81258668      62
Ni     1.79641906    0.01619220    1.78453462      63
Ni     1.79308733   -1.75495717    0.00527082      64
Ni    -3.53487966    0.00778918    0.00090765      65
Co     1.80157252    0.00618060   -1.81099525      66
Co    -1.76169455    1.79679040   -0.03093599      67
Co     0.00924879   -1.77102454    1.86074783      68
Co     0.01408086   -1.76685397   -1.81259075      69
Co     0.00000000    0.00000000    0.00000000      70
Cr     1.74217255    1.77419075   -0.03601506      71
Co    -1.77754596   -1.79926832    0.01389984      72
Cr     0.01557268    1.78156554   -1.78668006      73
Co    -1.77218125    0.01287160   -1.78911907      74
Cr     0.05143002    0.00656202    3.60934745      75
Co     0.02158816    3.57168820    0.00093239      76
Co     0.01230690   -3.55583153    0.01192948      77
Co     3.60139807    0.02978139   -0.03157318      78
Co     0.02581153    0.02324660   -3.60709271      79
          79
Lattice="  21.4578   0.0000   0.0000   0.0000  21.4578   0.0000   0.0000   0.0000  21.4578 " ConfE="      -3728.9759" DelE="          4.1523"
Ni     1.79869458    5.41017109    0.01998462       1
Ni     0.03631873    5.42721297   -1.77809813       2
Ni    -1.79680357   -0.00658280    5.35592501       3
Ni     1.79877684    0.04665269    5.35461992       4
Ni    -1.74566841   -5.34104548    0.00132222       5
Co     0.02503675    1.84411926    5.33992919       6
Cr     0.02553365   -1.79346028    5.28416091       7
Ni     3.60501282   -3.58792777    0.03087837       8
Ni    -3.60459011    0.05209576   -3.60659674       9
Co     0.01771034   -5.36391016    1.80348051      10
Cr     0.07291239   -5.40874105   -1.76693627      11
Cr    -0.06721817    5.39688487    1.76115445      12
Co    -1.77486222    5.43477241    0.00729754      13
Cr     5.42339773    0.05632818   -1.82177302      14
Cr    -5.31402517    1.83112293    0.01556587      15
Co    -0.23793791   -1.63451319   -5.56456245      16
Cr    -0.03926304    1.83613135   -5.30336686      17
Co    -5.38119681   -1.80553340    0.00295492      18
Cr     5.41300253   -0.00040445    1.77749172      19
Cr     1.75578910    0.16340270   -5.37977426      20
Cr     5.38796273    1.78680744    0.02776098      21
Cr    -5.39989828   -0.01471692    1.76197884      22
Co    -1.82085592    0.11382062   -5.37521477      23
Co     5.42247444   -1.79323654   -0.00739929      24
Cr    -5.34180057    0.01810074   -1.74047553      25
Co     1.80949566   -5.40289832    0.03254086      26
Cr    -3.60543469   -3.58998850    0.05013818      27
Co     0.01122942    3.65116385   -3.57468658      28
Cr     3.56799195    0.06900661    3.55857282      29
Cr    -3.65042443    0.01508854    3.54068523      30
Cr     3.61002269    3.58510010    0.04036946      31
Cr     3.41128694   -0.04520802   -3.48832431      32
Co    -0.02390921    3.61329992    3.57185111      33
Co    -3.57297912    3.59052131    0.01218752      34
Co     0.03262229   -3.55609637    3.59879301      35
Cr     0.12675411   -3.41242401   -3.63314273      36
Ni    -1.76307863    1.78269630    3.58107182      37
Ni    -1.69291141   -3.50195808   -1.76319413      38
Ni     3.56116331    1.81345197   -1.77643414      39
Ni    -1.71896145   -1.73235035   -3.51421991      40
Ni     1.83635255   -3.74169817   -1.71255313      41
Co     1.79200912    3.61670025   -1.74100692      42
Cr    -1.80983731   -1.87476626    3.56373826      43
Cr     1.79716621    1.89793724    3.53801598      44
Cr     1.83164893   -1.82128567    3.55252200      45
Co     1.78530866    3.62793025    1.81882762      46
Co    -1.80201673    3.63973350   -1.76198556      47
Co    -1.76868094   -3.59584206    1.84105773      48
Co     1.76286488   -1.90941147   -4.57222667      49
Cr    -3.48731795    1.83322576    1.77201404      50
Co     1.72939471    1.84692413   -3.52099148      51
Cr    -3.62080175   -1.84666880    1.87854492      52
Co     3.63133993    1.79080858    1.82502336      53
Cr    -1.79599228    3.61543417    1.73624225      54
Cr     3.75416903   -1.79420872   -1.76483059      55
Cr    -3.57491395    1.88393074   -1.79676585      56
Cr    -3.58284508   -1.79608598   -1.80062723      57
Cr     3.63536483   -1.73875900    1.77202089      58
Cr    -1.76087152    1.84301568   -3.56705395      59
Co     1.81303226   -3.54135069    1.81025566      60
Ni    -0.01682264    1.78011058    1.76177414      61
Ni    -1.75263704   -0.01967346    1.77241892      62
Ni     1.75938347    0.00438915    1.75214609      63
Ni     1.83543441   -1.76957591    0.03809325      64
Ni    -3.59986617    0.01109457    0.03668748      65
Co     1.56336471    0.44459554   -1.43250134      66
Co    -1.74321802    1.78131070   -0.02501214      67
Co    -0.01100368   -1.77786480    1.82037584      68
Co     1.63587728   -1.56779282   -2.42216149      69
Co    -0.24854936   -1.28988745   -1.18451025      70
Cr     1.84379183    1.94377506    0.18565988      71
Co    -1.99443762   -1.87621762    0.14359224      72
Cr    -0.14921666    1.89394229   -1.78068243      73
Co    -1.94443499    0.11073259   -1.79190889      74
Cr     0.03950988   -0.01369306    3.60787461      75
Co    -0.00066115    3.62882739    0.02928346      76
Co     0.01889847   -3.55535246    0.00745049      77
Co     3.62247259    0.04139571   -0.02364191      78
Co     0.04825255   -0.01413287   -3.54512738      79
          79
Lattice="  21.4578   0.0000   0.0000   0.0000  21.4578   0.0000   0.0000   0.0000  21.4578 " ConfE="      -3733.1281" DelE="          0.0001"
Ni     1.79997517    5.38333997    0.00610008       1
Ni     0.04504128    5.39723137   -1.78672105       2
Ni    -1.79893483   -0.00766685    5.35575951       3
Ni     1.80265152    0.03979845    5.36739685       4
Ni    -1.74847397   -5.34088437   -0.00556866       5
Co     0.02319055    1.84522455    5.35226110       6
Cr     0.02060810   -1.79152734    5.28720744       7
Ni     3.57899387   -3.55911817    0.01773483       8
Ni    -3.54934353    0.05018336   -3.59759443       9
Co     0.01284471   -5.34731894    1.79975712      10
Cr     0.09450082   -5.32826784   -1.76691796      11
Cr    -0.04356379    5.36243301    1.75084131      12
Co    -1.75798933    5.39595450   -0.00779739      13
Cr     5.38986958    0.01372270   -1.84119374      14
Cr    -5.29979498    1.81657212    0.00256941      15
Co     0.03196246   -1.75073566   -5.41618103      16
Cr     0.01561043    1.83319529   -5.33971834      17
Co    -5.35796465   -1.78861552   -0.02322827      18
Cr     5.39307554   -0.00038524    1.76630631      19
Cr     1.76627042    0.02919437   -5.32886355      20
Cr     5.39394313    1.77309484    0.01469280      21
Cr    -5.37550047   -0.01613163    1.74149586      22
Co    -1.74580582    0.05667158   -5.39465362      23
Co     5.39072471   -1.78398310   -0.02486005      24
Cr    -5.32766683    0.02614211   -1.76017357      25
Co     1.79441195   -5.34822028   -0.01564103      26
Cr    -3.56533749   -3.55278576    0.02968217      27
Co     0.03031840    3.60747342   -3.57459079      28
Cr     3.57912702    0.08882440    3.56037308      29
Cr    -3.65888358    0.00163048    3.54685078      30
Cr     3.57706582    3.52620107    0.03321578      31
Cr     3.56150969    0.02065209   -3.57089853      32
Co    -0.00951475    3.60717155    3.57541382      33
Co    -3.57493368    3.57553563   -0.00660799      34
Co     0.02157417   -3.55004547    3.60216120      35
Cr     0.04609702   -3.50928404   -3.62339731      36
Ni    -1.77038901    1.79049666    3.59513258      37
Ni    -1.75199836   -3.55305874   -1.79025417      38
Ni     3.57005471    1.80262136   -1.79724301      39
Ni    -1.75466181   -1.76395562   -3.58381054      40
Ni     1.79920071   -3.53428303   -1.77804522      41
Co     1.81302576    3.59988485   -1.76894217      42
Cr    -1.84132898   -1.87818135    3.58174162      43
Cr     1.80520130    1.90118323    3.59070825      44
Cr     1.84238186   -1.81997338    3.57254626      45
Co     1.78598837    3.57538100    1.77666185      46
Co    -1.77967749    3.59044189   -1.77396251      47
Co    -1.76628538   -3.54688198    1.80550634      48
Co     1.78674335   -1.77383050   -3.60627739      49
Cr    -3.49462463    1.82378822    1.77299816      50
Co     1.77167123    1.82778878   -3.54815424      51
Cr    -3.57412071   -1.82869580    1.80079726      52
Co     3.59445011    1.78698544    1.77773581      53
Cr    -1.78446166    3.60168906    1.72239639      54
Cr     3.58784452   -1.75699658   -1.83145801      55
Cr    -3.55705788    1.84299435   -1.81323762      56
Cr    -3.54822706   -1.78153286   -1.79835973      57
Cr     3.62627049   -1.74137876    1.78426125      58
Cr    -1.71295119    1.82115625   -3.54861773      59
Co     1.80819175   -3.52463657    1.80764615      60
Ni    -0.00664789    1.80108557    1.80103990      61
Ni    -1.76523956   -0.01155503    1.81254865      62
Ni     1.79654817    0.01645183    1.78440700      63
Ni     1.79312953   -1.75491097    0.00547989      64
Ni    -3.53490873    0.00786673    0.00103383      65
Co     0.00000523    0.00009470    0.00001844      66
Co    -1.76174432    1.79692339   -0.03100975      67
Co     0.00916419   -1.77043425    1.86092359      68
Co     1.80152030    0.00589094   -1.81062150      69
Co     0.01405800   -1.76676443   -1.81251997      70
Cr     1.74264197    1.77430418   -0.03617280      71
Co    -1.77743722   -1.79900866    0.01375315      72
Cr     0.01549797    1.78106882   -1.78679973      73
Co    -1.77244881    0.01282050   -1.78891336      74
Cr     0.05157763    0.00688390    3.60930187      75
Co     0.02134619    3.57185030    0.00095165      76
Co     0.01226426   -3.55541109    0.01194460      77
Co     3.60169505    0.02949135   -0.03160840      78
Co     0.02545493    0.02326454   -3.60685994      79
