          79
Lattice="  21.4578   0.0000   0.0000   0.0000  21.4578   0.0000   0.0000   0.0000  21.4578 " ConfE="      -3732.8498" DelE="          0.0000"
Ni    -1.73400645    5.41683304    0.00770077       1
Ni     0.04508155    5.41324588   -1.78121474       2
Ni     0.02102514    5.40240169    1.80008107       3
Ni    -5.32993007    0.06640048   -1.80320642       4
Ni     5.39343415    1.83186265    0.02269138       5
Ni    -5.31730426    0.02413823    1.79542837       6
Ni    -3.55067309    0.00557037    3.60652309       7
Co     1.83278279    5.41122255    0.06503858       8
Cr    -5.32749161    1.85758788   -0.01992773       9
Ni     3.57566622    0.06583672   -3.58579046      10
Ni    -3.54159440   -3.53841960    0.00453500      11
Co     5.38583928    0.03623282    1.78938378      12
Cr    -5.32954083   -1.76113807   -0.00677362      13
Cr     0.06272196   -1.80409805    5.34825255      14
Cr     0.02571501    1.91950884    5.37874421      15
Cr    -0.01831102   -1.78542991   -5.36762488      16
Cr     0.00274658    1.88847765   -5.36038294      17
Co     0.01906522   -5.33362663    1.77920422      18
Cr     0.04099222   -5.32232703   -1.76576044      19
Cr    -1.77485986    0.01666711   -5.36411393      20
Co     1.77554203   -5.32893547   -0.01701187      21
Cr     1.79732253    0.09990205    5.34093301      22
Co     5.41892536    0.06057751   -1.81400575      23
Co     5.35605730   -1.76029243   -0.01983480      24
Cr    -1.72842376    0.02141063    5.39215197      25
Cr     1.72190444    0.06155193   -5.36650588      26
Cr    -1.68278016   -5.29311145    0.03246053      27
Cr     3.56489209    3.60447780    0.06819310      28
Co    -3.55844166    3.61113428    0.02057540      29
Co     0.02593236    3.58251307   -3.59573262      30
Co     0.00848329    3.59257479    3.56879820      31
Co    -3.52469857    0.07227716   -3.59675418      32
Cr     3.57798122   -3.55305294    0.00232047      33
Co     0.02967394   -3.50597281    3.59233803      34
Co     0.02117611   -3.55800394   -3.56118472      35
Cr     3.61248908    0.01226987    3.55403716      36
Ni     1.81566273    3.62023071   -1.75063215      37
Ni     1.80701966   -3.54639297    1.81226214      38
Ni    -3.53170262   -1.74757758   -1.78698993      39
Ni    -1.79048697    1.82119706    3.59030561      40
Ni     1.79822642   -1.75044557   -3.58221189      41
Co    -1.76379840    3.60001002    1.80111797      42
Co    -1.75293484    3.62848164   -1.78281530      43
Cr    -3.49455639    1.84095923   -1.75845312      44
Cr     1.80387903    3.54967357    1.82651457      45
Cr     3.61797269    1.79289469    1.80809408      46
Co    -3.54952997    1.81940905    1.76651426      47
Co    -1.74938552   -1.73337157   -3.62917700      48
Co     1.77944228   -3.52768733   -1.78912001      49
Cr     1.84249751   -1.72959977    3.56023574      50
Cr    -1.77080616    1.85192193   -3.55263441      51
Co     1.81905420    1.80379979    3.57237079      52
Co     3.60478146    1.83681545   -1.79257401      53
Co     3.62863989   -1.77297847    1.77304762      54
Co    -1.77045975   -1.75662883    3.64989019      55
Co     3.59385335   -1.73489421   -1.78815931      56
Cr     1.74143911    1.86091014   -3.52802132      57
Cr    -1.73363759   -3.49363751   -1.82611142      58
Co    -1.76377932   -3.53450350    1.80646059      59
Co    -3.57076373   -1.78699721    1.81148257      60
Ni     0.00000000    0.00000000    0.00000000      61
Ni     1.78402578    1.81134745   -0.00224866      62
Ni     0.01575067    0.03465713    3.57353534      63
Ni     0.02402718   -3.51323557    0.02131094      64
Co    -1.75787840    0.03691759   -1.81348428      65
Cr     1.81319824   -1.75292224   -0.01763384      66
Co     1.82334185    0.03939939    1.76644256      67
Co     0.02816996   -1.75226299    1.82325224      68
Co     0.00447952   -1.76086534   -1.82007583      69
Co    -0.01511229    1.83978958   -1.75993142      70
Cr    -0.03696780    1.79848626    1.77285603      71
Cr    -1.78214330    1.81050835    0.01618237      72
Co     0.02910682    3.60695208    0.02953847      73
Co    -1.78360650    0.00506704    1.80535019      74
Cr     1.79224946    0.03266258   -1.77984860      75
Co    -1.76909257   -1.76671116   -0.00407390      76
Co    -3.54384206    0.02817214    0.00956680      77
Cr     3.61518171    0.02855063   -0.04145336      78
Cr    -0.01453846    0.05035579   -3.54458778      79
          79
Lattice="  21.4578   0.0000   0.0000   0.0000  21.4578   0.0000   0.0000   0.0000  21.4578 " ConfE="      -3729.1218" DelE="          3.7279"
Ni    -1.74496989    5.45399712   -0.00308108       1
Ni     0.05508122    5.44478476   -1.78549153       2
Ni     0.01895739    5.42367145    1.79731131       3
Ni    -5.37962504    0.04543777   -1.83774777       4
Ni     5.42281931    1.84634216    0.02684760       5
Ni    -5.31165477    0.03179591    1.78661226       6
Ni    -3.46635160   -0.04173429    3.56310345       7
Co     1.83355820    5.41918735    0.06831588       8
Cr    -5.25539233    1.86935958   -0.02869264       9
Ni     3.56554473    0.08411942   -3.58066325      10
Ni    -3.60757688   -3.59369271   -0.02121248      11
Co     5.41425366    0.04521930    1.80002848      12
Cr    -5.35613937   -1.77573467   -0.02975076      13
Cr     0.19481668   -1.83319443    5.44364051      14
Cr     0.05447418    1.96619486    5.40020195      15
Cr    -0.01138183   -1.79664322   -5.35965912      16
Cr    -0.01567124    1.88275452   -5.35579565      17
Co     0.02967487   -5.33891058    1.78193876      18
Cr     0.05185436   -5.34548455   -1.77590305      19
Cr    -1.75005978    0.00619719   -5.35310915      20
Co     1.80588086   -5.34009957   -0.00957154      21
Cr     1.84162696    0.12789719    5.36501195      22
Co     5.46376417    0.08746275   -1.83271203      23
Co     5.37568822   -1.75796936   -0.02706965      24
Cr    -1.72756743    0.25573047    5.54309008      25
Cr     1.70284357    0.05925464   -5.35870478      26
Cr    -1.70696965   -5.31974914    0.03022645      27
Cr     3.55738991    3.57691533    0.06666332      28
Co    -3.62294858    3.72074842   -0.01190958      29
Co     0.04287503    3.56767630   -3.57903177      30
Co     0.00360294    3.61056591    3.56674074      31
Co    -3.53128855    0.05232933   -3.61761079      32
Cr     3.69128778   -3.67265410    0.01291842      33
Co    -0.07343400   -3.36369048    3.53025942      34
Co     0.03338773   -3.55299794   -3.54125136      35
Cr     3.62029409    0.00322806    3.56389587      36
Ni     1.79865428    3.61289195   -1.72970705      37
Ni     1.75647039   -3.44718551    1.76403040      38
Ni    -3.58138366   -1.76531089   -1.83209269      39
Ni    -1.77333542    1.80867803    3.58079558      40
Ni     1.81033828   -1.75065683   -3.56667699      41
Co    -1.77304651    3.62437451    1.78578596      42
Co    -1.75835109    3.74830485   -1.86306288      43
Cr    -3.61392200    1.82174599   -1.90776202      44
Cr     1.77763808    3.53567348    1.81723884      45
Cr     3.62602008    1.80529771    1.81698735      46
Co    -3.42540416    1.74470343    1.70323741      47
Co    -1.73692704   -1.75128370   -3.60317661      48
Co     1.81891266   -3.54375748   -1.79775015      49
Cr     1.78103756   -1.70068651    3.51033005      50
Cr    -1.73117191    1.85075863   -3.45721474      51
Co     1.83464964    1.82770730    3.59510084      52
Co     3.59112442    1.83086351   -1.78235071      53
Co     3.66550848   -1.76679411    1.76420642      54
Co    -1.85185663   -1.68997733    4.44842923      55
Co     3.71727557   -1.73669955   -1.88937184      56
Cr     1.69792349    1.84614135   -3.49486713      57
Cr    -1.73406293   -3.49884185   -1.82483066      58
Co    -1.79404107   -3.62418681    1.72215449      59
Co    -3.65869148   -1.82577715    1.73694930      60
Ni     0.36081813   -1.34256273    0.78861753      61
Ni     1.73796486    1.76631852    0.02116742      62
Ni     0.03374730    0.07061769    3.67683397      63
Ni     0.04119623   -3.59146459   -0.02812336      64
Co    -1.75577347    0.01507628   -1.79059100      65
Cr     2.24628859   -1.86726555   -0.23879296      66
Co     1.93999483    0.08514537    1.80177679      67
Co    -1.36809151   -1.33090285    2.30348748      68
Co     0.05308042   -1.72489569   -1.75304009      69
Co    -0.05547700    1.79155196   -1.65645524      70
Cr    -0.00005355    1.81318000    1.80058471      71
Cr    -2.02683233    2.15071412   -0.26586700      72
Co     0.01284157    3.63324146    0.02635236      73
Co    -1.29630323    0.34971515    0.68346346      74
Cr     1.74136944    0.01817904   -1.71291916      75
Co    -1.87411665   -1.90579084   -0.11123537      76
Co    -3.60321485    0.00947163   -0.04705327      77
Cr     3.67392094    0.10194486   -0.04948180      78
Cr    -0.01891164    0.02959140   -3.51200356      79
          79
Lattice="  21.4578   0.0000   0.0000   0.0000  21.4578   0.0000   0.0000   0.0000  21.4578 " ConfE="      -3733.1281" DelE="         -0.2783"
Ni    -1.73382791    5.41414248    0.00721674       1
Ni     0.04561514    5.41422763   -1.78283363       2
Ni     0.02110597    5.40025108    1.80003787       3
Ni    -5.32821272    0.06709447   -1.80365664       4
Ni     5.38809896    1.83009262    0.02186145       5
Ni    -5.31377792    0.02477784    1.79497162       6
Ni    -3.54410876    0.00535609    3.60648644       7
Co     1.83596952    5.41572275    0.06647598       8
Cr    -5.33592707    1.85990546   -0.01929983       9
Ni     3.57132114    0.06692411   -3.58791088      10
Ni    -3.53086756   -3.53614763    0.00368362      11
Co     5.38135777    0.03441051    1.78899717      12
Cr    -5.32709625   -1.76462175   -0.00442194      13
Cr     0.06351267   -1.80306227    5.36648405      14
Cr     0.02633211    1.91809434    5.38464604      15
Cr    -0.01777384   -1.78740227   -5.37326328      16
Cr     0.00187089    1.88913711   -5.36516858      17
Co     0.01554275   -5.33130917    1.77829677      18
Cr     0.04119069   -5.32775127   -1.76799046      19
Cr    -1.77004032    0.01703996   -5.36606952      20
Co     1.77507550   -5.33331015   -0.01982267      21
Cr     1.80025783    0.10573551    5.35431087      22
Co     5.41928548    0.06012549   -1.81656340      23
Co     5.34843824   -1.75970629   -0.02020918      24
Cr    -1.72729156    0.02379501    5.40323967      25
Cr     1.71810906    0.06200463   -5.37400548      26
Cr    -1.68436837   -5.31135673    0.02701983      27
Cr     3.56694316    3.60861938    0.06847755      28
Co    -3.55854668    3.60735300    0.01997529      29
Co     0.02681229    3.58724872   -3.59940600      30
Co     0.00711918    3.59229211    3.57059964      31
Co    -3.52467501    0.07358269   -3.60071583      32
Cr     3.57419554   -3.55449622    0.00127660      33
Co     0.02932256   -3.50772546    3.60158395      34
Co     0.02089215   -3.56060377   -3.56312803      35
Cr     3.61420635    0.01652587    3.56024410      36
Ni     1.82065742    3.62912274   -1.75514546      37
Ni     1.80012467   -3.54220706    1.81167263      38
Ni    -3.53353100   -1.74704451   -1.78987275      39
Ni    -1.78551709    1.81799669    3.59497769      40
Ni     1.79804661   -1.75315151   -3.58986980      41
Co    -1.75752300    3.58876141    1.79488945      42
Co    -1.74855079    3.62438453   -1.78065299      43
Cr    -3.49182038    1.83806736   -1.75467994      44
Cr     1.79819663    3.54311218    1.82715357      45
Cr     3.61507393    1.79000595    1.80863060      46
Co    -3.54061351    1.81383450    1.76292804      47
Co    -1.74690673   -1.73382455   -3.62224323      48
Co     1.77793961   -3.53049635   -1.79415566      49
Cr     1.84740130   -1.72446765    3.57819905      50
Cr    -1.76325876    1.85010640   -3.54578054      51
Co     1.81558091    1.80389655    3.57167360      52
Co     3.60154675    1.83637009   -1.79447074      53
Co     3.61185552   -1.76707198    1.76907774      54
Co    -1.76970500   -1.75352314    3.65486138      55
Co     3.58648851   -1.73420040   -1.79227282      56
Cr     1.73796365    1.86236988   -3.52700395      57
Cr    -1.73277217   -3.49237293   -1.82945951      58
Co    -1.76660493   -3.53849998    1.80588239      59
Co    -3.55630641   -1.78209755    1.80769095      60
Ni     0.01426034   -1.73799986    1.79941769      61
Ni     1.79118552    1.81953247   -0.00330522      62
Ni     0.01767898    0.03336294    3.57834480      63
Ni     0.02033152   -3.51737192    0.01589258      64
Co    -1.75341426    0.04017565   -1.81292215      65
Cr     1.80897533   -1.74008547   -0.03752022      66
Co     1.82282586    0.04640246    1.76232939      67
Co    -1.77886396    0.01700581    1.79395624      68
Co     0.00787415   -1.75691939   -1.81233960      69
Co    -0.00719797    1.84469989   -1.75421645      70
Cr    -0.03622722    1.79121529    1.75776500      71
Cr    -1.76337122    1.79797993    0.00713807      72
Co     0.03415657    3.61679596    0.02499563      73
Co     0.02265110    0.02280205   -0.01668371      74
Cr     1.78264050    0.03756320   -1.77696074      75
Co    -1.76481119   -1.74985332   -0.01858217      76
Co    -3.55131800    0.02973161    0.00502443      77
Cr     3.61100039    0.03063381   -0.04725595      78
Cr    -0.01259877    0.04610548   -3.53492576      79
