          79
Lattice="  21.4578   0.0000   0.0000   0.0000  21.4578   0.0000   0.0000   0.0000  21.4578 " ConfE="      -3733.1281" DelE="          0.0000"
Ni    -0.03210283    1.77782103    5.40789984       1
Ni     1.77109324   -0.00681271    5.39126694       2
Ni     0.01958635    5.37396683    1.82013889       3
Ni    -1.79069450   -0.03481957    5.41940859       4
Ni    -5.35073812   -1.77736367    0.00775125       5
Ni     5.32473540    0.02674846   -1.77498874       6
Ni    -1.74039159   -5.37878953    0.05778048       7
Ni     1.79902940    5.37405198    0.03008851       8
Ni    -0.06438019   -1.80942736   -5.35251187       9
Ni    -1.79483692    0.03556695   -5.35058343      10
Co    -0.01629075   -1.79369880    5.46778353      11
Ni     3.57407168    3.58894709    0.05777669      12
Ni    -0.02916187   -3.60867679   -3.54860207      13
Ni    -3.58281752    0.02601747   -3.54829903      14
Ni    -3.56036367   -0.01539781    3.60789377      15
Cr     0.06904588   -5.35153238    1.83994198      16
Co     5.33990277   -1.77437605    0.02064933      17
Co     1.74829058   -0.01124737   -5.30914377      18
Cr    -1.80841133    5.32399343    0.08942938      19
Cr     0.05752870    5.29793506   -1.74919603      20
Cr     0.05774705    1.77085661   -5.35971588      21
Co     5.35496101    1.79619444    0.01845141      22
Co     0.04168603   -5.40564187   -1.72609550      23
Cr    -5.37904549    0.03417591   -1.81699127      24
Cr    -5.35312177    0.00287757    1.84668637      25
Cr    -5.42542780    1.83005968   -0.01833855      26
Cr     5.36441465   -0.00954184    1.76566620      27
Cr     1.79460495   -5.36792692    0.04493168      28
Co    -3.57867525   -3.56648502    0.05536661      29
Co    -0.00410874    3.54858576    3.60781159      30
Co     3.57624012    0.00622681    3.57525154      31
Cr     3.47152332    0.02182898   -3.56108333      32
Co    -0.01319068   -3.57867563    3.61880454      33
Co     3.53135387   -3.57067200    0.01876649      34
Co    -3.61088456    3.55717484    0.04034450      35
Co     0.00677075    3.54969163   -3.57593726      36
Ni     1.76767460   -1.77817551    3.61233984      37
Ni     3.55146087   -1.79332716   -1.77694765      38
Ni    -1.77745330   -3.57632328    1.81660577      39
Ni    -3.55552517   -1.79629082   -1.75153629      40
Ni     1.77374577   -3.55754757    1.82881473      41
Ni    -1.77890753    3.60055788   -1.73648240      42
Ni     3.54459978    1.77935682    1.80961693      43
Cr     1.71718703    1.75103964    3.57068715      44
Co     1.78757083    3.57662031    1.83791778      45
Co    -1.78719926    1.77365885    3.57585019      46
Co    -1.80513242    3.56717734    1.83289743      47
Co    -1.80289216   -1.82227320    3.62061309      48
Co    -1.82705163   -1.80522741   -3.55458243      49
Cr     3.49137791    1.82219422   -1.71408180      50
Co    -1.77801072   -3.62266860   -1.75570818      51
Cr    -3.57368200   -1.80479740    1.80850021      52
Cr     3.56238959   -1.78026112    1.77540193      53
Cr     1.73564042   -1.82757792   -3.56034113      54
Cr    -1.82853116    1.82746295   -3.53866266      55
Co     1.78022654    3.54707307   -1.78648385      56
Cr     1.75528515    1.84896145   -3.55224643      57
Co     1.77430641   -3.60077942   -1.75020589      58
Co    -3.57930112    1.82084356   -1.72704788      59
Cr    -3.58251281    1.81972981    1.79362232      60
Ni    -1.78011674   -1.78722016    0.02304940      61
Ni    -3.57479846    0.02691882    0.00926551      62
Co     1.77606536   -0.01737361    1.79623844      63
Cr     1.74081549    0.00592983   -1.72200361      64
Co    -0.01139693   -1.79002897    1.79433998      65
Co     1.76128841   -1.79709504    0.00058255      66
Cr    -1.73840612    1.79789171    0.05824221      67
Cr    -0.00984451    1.80993075   -1.73285840      68
Co     0.00000000    0.00000000    0.00000000      69
Cr    -0.00995696    1.75780428    1.82006022      70
Co    -0.02544970   -0.02316984    3.60687839      71
Co    -1.77126075    0.03340704   -1.78779368      72
Co     1.74621629    1.80452424    0.05870570      73
Co    -1.79790375   -0.01044404    1.81794658      74
Co     0.00650752   -1.77400021   -1.80932108      75
Co     0.00486347    3.58420888    0.03226915      76
Cr    -0.01662607   -0.02313569   -3.55314737      77
Cr     3.53605476   -0.00261245    0.03596141      78
Cr     0.02064209   -3.53254858   -0.01653737      79
          79
Lattice="  21.4578   0.0000   0.0000   0.0000  21.4578   0.0000   0.0000   0.0000  21.4578 " ConfE="      -3729.2937" DelE="          3.8344"
Ni    -0.01530925    1.77672624    5.37590549       1
Ni     1.76914670   -0.01419224    5.35138152       2
Ni    -0.00522134    5.44733440    1.84232806       3
Ni    -1.77589891   -0.04488560    5.41112361       4
Ni    -5.34518348   -1.77738061    0.00594432       5
Ni     5.30323969    0.01516410   -1.73175885       6
Ni    -1.75700399   -5.41568819    0.05246578       7
Ni     1.78527948    5.45448915    0.03788873       8
Ni    -0.03380180   -1.81962959   -5.33508124       9
Ni    -1.80568043    0.02774358   -5.36526749      10
Co    -0.00568248   -1.80413763    5.44281658      11
Ni     3.59291251    3.72852492    0.09597784      12
Ni     0.00324976   -3.64531443   -3.58606392      13
Ni    -3.56314987    0.01693707   -3.54242045      14
Ni    -3.55169715   -0.02165277    3.60492438      15
Cr     0.04819161   -5.38716375    1.84651459      16
Co     5.17807386   -1.70368520    0.09002042      17
Co     1.74155270   -0.00066988   -5.32738943      18
Cr    -1.85452855    5.42644427    0.08891181      19
Cr     0.03115965    5.31486411   -1.77257456      20
Cr     0.06779433    1.78272004   -5.30957614      21
Co     5.28176559    1.78035564    0.06060897      22
Co     0.03415354   -5.44440089   -1.74493410      23
Cr    -5.36125544    0.03272330   -1.81946917      24
Cr    -5.32619893    0.01641421    1.83980401      25
Cr    -5.41856218    1.82475875   -0.01932221      26
Cr     5.38125132    0.05110050    1.79320589      27
Cr     1.79999108   -5.43016247    0.04855811      28
Co    -3.57752347   -3.57226519    0.04945830      29
Co    -0.02176305    3.61236671    3.63830662      30
Co     3.54200899    0.00884166    3.48594323      31
Cr     3.51340787    0.00403264   -3.60161178      32
Co    -0.01109879   -3.61601029    3.62816879      33
Co     3.53285943   -3.68634508    0.02577921      34
Co    -3.58470619    3.52058250    0.06938139      35
Co     0.00183374    3.61726476   -3.61683136      36
Ni     1.76526469   -1.75893548    3.51808246      37
Ni     3.59667338   -2.02170459   -1.82084710      38
Ni    -1.81557825   -3.62200922    1.80952776      39
Ni    -3.53670426   -1.80619501   -1.74786598      40
Ni     1.77997728   -3.63973441    1.81981265      41
Ni    -1.85234805    3.67360754   -1.70943952      42
Ni     3.57019884    2.00237216    1.86573908      43
Cr     1.65436247    1.60581140    3.36864748      44
Co     1.76464254    3.68091354    1.86874295      45
Co    -1.79942507    1.77339171    3.60126955      46
Co    -1.83523640    3.62692371    1.82665602      47
Co    -1.80261796   -1.84198494    3.61787064      48
Co    -1.82860882   -1.83617525   -3.56099958      49
Cr     3.63070419    2.10230374   -1.65216592      50
Co    -1.81060873   -3.68066880   -1.76872780      51
Cr    -3.55589835   -1.81223289    1.79805961      52
Cr     3.62252215   -2.02804604    1.84235097      53
Cr     1.65884304   -1.59474409   -3.33544889      54
Cr    -1.85673497    1.84722346   -3.53614156      55
Co     1.77576490    3.66425038   -1.79744865      56
Cr     1.74482919    1.69881681   -3.38668613      57
Co     1.78664432   -3.70790294   -1.79456271      58
Co    -3.54131782    1.82309648   -1.70665101      59
Cr    -3.50745832    1.82506207    1.77849595      60
Ni    -1.71944402   -1.76060363    0.01653675      61
Ni    -3.56538285    0.02437159    0.00732720      62
Co     0.60993034    0.14961799    1.06244070      63
Cr     2.87107476    0.06952605   -1.30041829      64
Co    -0.02522672   -1.97617316    1.79066898      65
Co     1.75690046   -1.86951423   -0.03012918      66
Cr    -1.55264416    1.66482979    0.01274556      67
Cr    -0.07282287    2.13773724   -1.82868565      68
Co     0.68505805    0.12800106   -1.32715606      69
Cr    -0.16075814    2.03678935    1.91787025      70
Co    -0.02003731   -0.03350110    3.55194950      71
Co    -1.74117184    0.03193410   -1.77921151      72
Co     1.74563701    1.97701879    0.04184093      73
Co    -1.78397583   -0.02985237    1.81717587      74
Co    -0.04017771   -1.99667691   -1.80962600      75
Co    -0.02513907    3.71123257    0.03829996      76
Cr    -0.09314399   -0.03269527   -3.60749486      77
Cr     2.96782079   -0.04844174    0.97448968      78
Cr     0.01627789   -3.62956341   -0.01643967      79
          79
Lattice="  21.4578   0.0000   0.0000   0.0000  21.4578   0.0000   0.0000   0.0000  21.4578 " ConfE="      -3733.3723" DelE="         -0.2443"
Ni    -0.03658905    1.77986624    5.40996368       1
Ni     1.76748481   -0.00856799    5.38770270       2
Ni     0.01875377    5.37797303    1.81921132       3
Ni    -1.79662993   -0.03647465    5.42612785       4
Ni    -5.35016255   -1.77777730    0.00742272       5
Ni     5.33362957    0.02613157   -1.78007451       6
Ni    -1.74048730   -5.38035685    0.05723902       7
Ni     1.79798099    5.37727512    0.03081318       8
Ni    -0.05634906   -1.81042717   -5.34783212       9
Ni    -1.78026859    0.03544459   -5.33751438      10
Co    -0.01998501   -1.79666154    5.46841206      11
Ni     3.57040196    3.58565522    0.05351257      12
Ni    -0.02228943   -3.61007358   -3.54684468      13
Ni    -3.57969773    0.02412065   -3.54983226      14
Ni    -3.56001180   -0.01530077    3.60855925      15
Cr     0.07156628   -5.34866626    1.84030730      16
Co     5.33928788   -1.76766725    0.02128597      17
Co     1.74999101   -0.00772023   -5.32084687      18
Cr    -1.81034134    5.33009383    0.08373785      19
Cr     0.04779219    5.31447155   -1.74675514      20
Cr     0.06312660    1.77196277   -5.34806670      21
Co     5.35552402    1.79171178    0.01682696      22
Co     0.04270194   -5.40750053   -1.72707869      23
Cr    -5.37727310    0.03332522   -1.82034766      24
Cr    -5.35285040    0.00394811    1.84664989      25
Cr    -5.42332054    1.83038246   -0.01882221      26
Cr     5.39371155   -0.00208431    1.77491877      27
Cr     1.79663331   -5.37290140    0.05290678      28
Co    -3.57941532   -3.56785181    0.05509030      29
Co    -0.00838265    3.55671739    3.61136327      30
Co     3.55444917    0.00140725    3.55090906      31
Cr     3.46250543    0.02349320   -3.54822227      32
Co    -0.01580257   -3.58315710    3.61782994      33
Co     3.53161830   -3.57072347    0.01666203      34
Co    -3.61036734    3.55807656    0.03713127      35
Co     0.00804620    3.55425552   -3.57177478      36
Ni     1.76290027   -1.78410984    3.60996418      37
Ni     3.54971200   -1.79377870   -1.77699468      38
Ni    -1.77741453   -3.57755792    1.81437932      39
Ni    -3.55651850   -1.80037239   -1.75272807      40
Ni     1.77205841   -3.55509261    1.81960059      41
Ni    -1.77284842    3.59870620   -1.73810723      42
Ni     3.53044964    1.76342770    1.79324579      43
Cr     1.71820032    1.76401296    3.58427629      44
Co     1.78400191    3.56447140    1.83755865      45
Co    -1.79241327    1.77801685    3.58224235      46
Co    -1.80852223    3.57546912    1.83217620      47
Co    -1.80597165   -1.82463408    3.62111728      48
Co    -1.82222285   -1.80849743   -3.55366523      49
Cr     3.48561638    1.81770232   -1.71564816      50
Co    -1.77901475   -3.62578887   -1.75829610      51
Cr    -3.56935833   -1.79904529    1.80827457      52
Cr     3.56441726   -1.77765422    1.76332303      53
Cr     1.73467120   -1.81300092   -3.54241979      54
Cr    -1.81811404    1.82614265   -3.53497808      55
Co     1.77507026    3.57004286   -1.78339307      56
Cr     1.75330251    1.83921044   -3.53237617      57
Co     1.77532515   -3.61190741   -1.74634862      58
Co    -3.57748991    1.82074499   -1.73099783      59
Cr    -3.57211270    1.81606453    1.79221141      60
Ni    -1.78089942   -1.78968458    0.02180559      61
Ni    -3.57627726    0.02548070    0.00951134      62
Co    -0.01039542    0.00544450    0.00178268      63
Cr     3.52909570   -0.00130458    0.01425117      64
Co    -0.00525488   -1.77875955    1.79474722      65
Co     1.76120371   -1.79044240    0.00099425      66
Cr    -1.74186429    1.79722415    0.04490275      67
Cr    -0.00833349    1.79690462   -1.74020899      68
Co     1.75268327    0.02055046   -1.75051662      69
Cr    -0.03128075    1.78284090    1.82025550      70
Co    -0.03492985   -0.02267777    3.61633693      71
Co    -1.78718123    0.02488714   -1.78686996      72
Co     1.73740857    1.80418528    0.04708938      73
Co    -1.78799877   -0.00622561    1.81932579      74
Co     0.00577086   -1.77678447   -1.80393059      75
Co     0.00231888    3.58875024    0.02995833      76
Cr     0.00342287   -0.03047996   -3.53194787      77
Cr     1.69393522   -0.02393797    1.79575611      78
Cr     0.01871197   -3.53580164   -0.02745354      79
