          79
Lattice="  21.4578   0.0000   0.0000   0.0000  21.4578   0.0000   0.0000   0.0000  21.4578 " ConfE="      -3733.1281" DelE="          0.0000"
Ni    -1.77001622   -5.35770268   -0.00467470       1
Ni     0.02417759   -5.35385382    1.78339323       2
Ni     0.05793627   -5.36834387   -1.76028739       3
Ni     1.81797277    5.38397273    0.00205556       4
Ni    -1.79626302    5.37087602    0.02165544       5
Ni    -1.78527793    0.03652975   -5.36560933       6
Ni     0.00204257    1.77766508    5.38398309       7
Ni     5.34287153    1.79006942   -0.00826139       8
Ni    -5.38058427    1.81827869    0.02420487       9
Co     0.01495215    5.38270553    1.78139132      10
Ni     3.56891469    0.00334390    3.57341467      11
Ni     0.01859589    3.61087287   -3.55407518      12
Ni     3.57204920   -3.54727390    0.01060621      13
Co    -0.02911546   -1.79443111   -5.37223729      14
Cr    -1.88655821   -0.01100407    5.33526723      15
Cr    -5.35958372   -0.01964524    1.77003537      16
Cr    -5.34936876    0.03530050   -1.76987762      17
Cr     5.33461597    0.00828933   -1.78204006      18
Cr     1.86710581   -5.34144644    0.02217702      19
Cr    -0.01053507    5.33474626   -1.72849092      20
Cr     1.82392412   -0.00643423    5.39818479      21
Co     5.37468514    0.01711278    1.75759994      22
Cr    -0.03116475    1.83764043   -5.35605904      23
Cr     1.78100796   -0.01229610   -5.37081528      24
Cr    -0.06846696   -1.89143791    5.37061374      25
Co    -5.33609610   -1.78669555   -0.02373801      26
Cr     5.36081851   -1.76945075   -0.04265128      27
Co     3.58597675    3.58714552    0.01971199      28
Cr    -3.57329033    3.62306817    0.02832066      29
Co     0.00632188   -3.55994604    3.59474874      30
Cr    -3.58556599   -3.54943915   -0.00703936      31
Cr    -0.01179167    3.58865077    3.51156213      32
Cr    -3.58162363    0.04450543   -3.63447535      33
Co     0.01992423   -3.61220063   -3.57357103      34
Cr     3.53924295    0.01644058   -3.53973192      35
Cr    -3.60300086   -0.02848648    3.52991313      36
Ni    -1.75788536   -1.78576387   -3.56913592      37
Ni     1.76588989    1.78815139    3.59011938      38
Ni    -3.55289826   -1.76738811   -1.80988173      39
Ni     3.56606950   -1.76751184    1.79405817      40
Cr    -1.79289874   -3.56611014    1.81897134      41
Co    -1.78092131   -3.55658226   -1.76228240      42
Co     1.79420449    3.55863669    1.78980325      43
Co    -1.80230443    3.56284470    1.78230706      44
Cr    -1.72239900    1.81124624    3.56172533      45
Co     3.54443962    1.81509274   -1.75942576      46
Cr    -3.52725960    1.80433636    1.79091014      47
Cr    -3.62790600    1.84079466   -1.83534959      48
Cr     3.51508749    1.76134493    1.75253573      49
Co    -1.78210205    1.83127564   -3.54456151      50
Co     1.80434587   -1.76343337   -3.62698806      51
Cr    -1.80168039   -1.84197435    3.58994199      52
Co    -3.58554304   -1.80208114    1.76640565      53
Co     1.78513619   -3.56851779    1.80056366      54
Cr     1.81868368   -3.52208430   -1.83435762      55
Co     1.80284505    3.59468759   -1.78600693      56
Co    -1.81336451    3.56784197   -1.77760814      57
Co     1.78175955   -1.78371201    3.64930941      58
Cr     1.78781555    1.82029888   -3.55059580      59
Co     3.55940801   -1.78643192   -1.81706866      60
Ni    -1.76236288   -0.00503410    1.79005606      61
Ni    -1.77731216    0.03727030   -1.80816870      62
Ni     0.01772782   -1.77698444   -1.79460827      63
Ni     0.02045786   -3.56608514   -0.00131043      64
Ni     0.00708489   -0.02467605    3.60155456      65
Co    -0.00494830   -1.81223367    1.80267915      66
Cr    -1.77589420   -1.79478084   -0.00908242      67
Co     0.01080385    1.78403882    1.75778716      68
Co     1.79818542    0.01035919   -1.81810095      69
Co     0.00000000    0.00000000    0.00000000      70
Cr     1.78825833    1.76842876    0.00181443      71
Cr    -1.78484581    1.83034874   -0.02441853      72
Co     1.77239856   -0.01273230    1.78888284      73
Co     1.78665064   -1.77957829   -0.02348561      74
Cr     0.05902438    1.80830532   -1.75923314      75
Co    -0.00713381    3.57750411    0.01483488      76
Co     0.02626628    0.04378173   -3.60511543      77
Co     3.57440202   -0.00652068   -0.02174488      78
Cr    -3.55535509    0.01246574    0.02965090      79
          79
Lattice="  21.4578   0.0000   0.0000   0.0000  21.4578   0.0000   0.0000   0.0000  21.4578 " ConfE="      -3728.7275" DelE="          4.4007"
Ni    -1.77403376   -5.38197495   -0.00143696       1
Ni     0.01676385   -5.36348996    1.79179171       2
Ni     0.03303728   -5.41016124   -1.77750866       3
Ni     1.82074838    5.41509385    0.00936001       4
Ni    -1.81828159    5.40432075    0.02327931       5
Ni    -1.80421459    0.04449370   -5.38096544       6
Ni    -0.00808539    1.79905526    5.40704637       7
Ni     5.31746491    1.81975251    0.02065170       8
Ni    -5.37420731    1.81862902    0.02858741       9
Co    -0.00326982    5.41672220    1.79357242      10
Ni     3.57000285    0.01230055    3.60336321      11
Ni     0.01904294    3.66384521   -3.63433096      12
Ni     3.52062109   -3.47373599   -0.04366058      13
Co    -0.09255019   -1.80803354   -5.44591474      14
Cr    -1.91160778    0.01557151    5.35476114      15
Cr    -5.34094393   -0.02581837    1.75533955      16
Cr    -5.32107366    0.03824632   -1.74542037      17
Cr     5.40396325    0.19542523   -1.78527275      18
Cr     1.86605988   -5.37503544    0.03745539      19
Cr    -0.01942588    5.29717715   -1.73849044      20
Cr     1.82659256    0.00763458    5.41424754      21
Co     5.35207499    0.06547958    1.78719530      22
Cr    -0.03148738    1.83492053   -5.34997837      23
Cr     1.79674236   -0.00600300   -5.43880880      24
Cr    -0.07729454   -1.90032959    5.39709674      25
Co    -5.33694261   -1.78400637   -0.02035947      26
Cr     5.51043342   -1.75066464    0.31610074      27
Co     3.57563417    3.61708939    0.02838679      28
Cr    -3.59262782    3.65557531    0.04875485      29
Co     0.00171115   -3.61444617    3.65674588      30
Cr    -3.53442203   -3.51822304   -0.00831701      31
Cr    -0.03541637    3.62143237    3.54118654      32
Cr    -3.57844944    0.05029990   -3.59703394      33
Co    -0.00603960   -3.64237713   -3.62172372      34
Cr     3.43647595   -0.07634856   -3.33272880      35
Cr    -3.59402783   -0.01829925    3.50491901      36
Ni    -1.77385887   -1.77232507   -3.59957263      37
Ni     1.75766039    1.83490629    3.63889861      38
Ni    -3.50637069   -1.74999468   -1.77960273      39
Ni     3.47131164   -1.74410144    1.76707268      40
Cr    -1.80035305   -3.58731200    1.82209286      41
Co    -1.79159908   -3.57074551   -1.75791654      42
Co     1.77715567    3.61676874    1.82641562      43
Co    -1.81308775    3.57912684    1.78008316      44
Cr    -1.72832634    1.83192081    3.56234524      45
Co     3.41281942    1.78744713   -1.69479397      46
Cr    -3.49249794    1.82251698    1.74981252      47
Cr    -3.57257399    1.84635170   -1.77729602      48
Cr     3.49986687    1.78034451    1.77756944      49
Co    -1.83234745    1.85028357   -3.59042038      50
Co     1.72220491   -1.78075576   -3.89295250      51
Cr    -1.83879332   -1.84286526    3.65294411      52
Co    -3.53572496   -1.80608518    1.74248850      53
Co     1.75018948   -3.55640974    1.80200670      54
Cr     1.78972966   -3.65154606   -1.90618453      55
Co     1.77787692    3.62704913   -1.78758944      56
Co    -1.89103623    3.63366418   -1.78993432      57
Co     1.77546272   -1.77950031    3.68938910      58
Cr     1.77361556    1.74784121   -3.51674090      59
Co     4.53369088   -1.83935904   -1.63977179      60
Ni    -1.70513144    0.00137417    1.78972997      61
Ni    -1.71483710    0.05776660   -1.79820214      62
Ni    -0.02671460   -1.84954951   -1.88264436      63
Ni     0.02734704   -3.60185041   -0.01882937      64
Ni    -0.00898371   -0.00234120    3.67465010      65
Co    -0.11306584   -1.86361761    2.03267273      66
Cr    -1.58536102   -1.67070844   -0.00392118      67
Co     0.00834242    1.79633696    1.75169889      68
Co     1.10001154    0.36799128   -1.34618854      69
Co     1.25629037   -1.49114489    0.24962830      70
Cr     1.74835696    1.89142588    0.16984658      71
Cr    -1.66845464    1.75362824    0.00482534      72
Co     1.74437678    0.07097588    1.90739932      73
Co     2.37617636   -1.48971676   -1.73229754      74
Cr    -0.16267535    2.10201217   -1.85906400      75
Co    -0.02936224    3.64807876    0.02813218      76
Co     0.03020762    0.07534960   -3.62696876      77
Co     3.49771459   -0.03788002   -0.03666811      78
Cr    -3.53084249   -0.00381219    0.04422495      79
          79
Lattice="  21.4578   0.0000   0.0000   0.0000  21.4578   0.0000   0.0000   0.0000  21.4578 " ConfE="      -3733.1281" DelE="          0.0001"
Ni    -1.77009666   -5.35714215   -0.00457230       1
Ni     0.02401308   -5.35373291    1.78350711       2
Ni     0.05755040   -5.36837353   -1.76000369       3
Ni     1.81752834    5.38438284    0.00235472       4
Ni    -1.79661502    5.37070999    0.02188145       5
Ni    -1.78487553    0.03643347   -5.36608319       6
Ni     0.00209805    1.77764813    5.38420835       7
Ni     5.34254177    1.78977283   -0.00816724       8
Ni    -5.38046104    1.81801562    0.02407929       9
Co     0.01449773    5.38310596    1.78127838      10
Ni     3.56903523    0.00360330    3.57348278      11
Ni     0.01903447    3.61097389   -3.55426657      12
Ni     3.57168777   -3.54713156    0.01103056      13
Co    -0.02910963   -1.79481141   -5.37236660      14
Cr    -1.88639652   -0.01121806    5.33592655      15
Cr    -5.35965737   -0.01977408    1.77007746      16
Cr    -5.34953027    0.03546338   -1.76996174      17
Cr     5.33399675    0.00780356   -1.78182276      18
Cr     1.86698788   -5.34111637    0.02215781      19
Cr    -0.01046934    5.33440943   -1.72835479      20
Cr     1.82406469   -0.00596463    5.39837765      21
Co     5.37418211    0.01664282    1.75746737      22
Cr    -0.03058916    1.83787896   -5.35644682      23
Cr     1.78131593   -0.01271968   -5.37093154      24
Cr    -0.06884192   -1.89102989    5.37081740      25
Co    -5.33635158   -1.78621023   -0.02400958      26
Cr     5.36033158   -1.76984511   -0.04238224      27
Co     3.58551282    3.58703631    0.02013361      28
Cr    -3.57277990    3.62214668    0.02874041      29
Co     0.00620168   -3.55973052    3.59458211      30
Cr    -3.58541134   -3.54905552   -0.00718363      31
Cr    -0.01197461    3.58884053    3.51147216      32
Cr    -3.58110350    0.04459192   -3.63477544      33
Co     0.01993127   -3.61225259   -3.57349235      34
Cr     3.53875748    0.01634584   -3.53978778      35
Cr    -3.60301341   -0.02898017    3.53057163      36
Ni    -1.75758318   -1.78587481   -3.56932046      37
Ni     1.76583916    1.78823704    3.59011567      38
Ni    -3.55279612   -1.76694766   -1.81003292      39
Ni     3.56561659   -1.76775950    1.79455567      40
Cr    -1.79285043   -3.56563430    1.81875794      41
Co    -1.78073325   -3.55606901   -1.76241756      42
Co     1.79383325    3.55900177    1.79002743      43
Co    -1.80244662    3.56268709    1.78246778      44
Cr    -1.72213757    1.81093969    3.56207394      45
Co     3.54415829    1.81494024   -1.75907847      46
Cr    -3.52730792    1.80372359    1.79164518      47
Cr    -3.62748581    1.84047569   -1.83612272      48
Cr     3.51512903    1.76145564    1.75290298      49
Co    -1.78135913    1.83125956   -3.54483205      50
Co     1.80444952   -1.76358420   -3.62710525      51
Cr    -1.80163365   -1.84154434    3.58987303      52
Co    -3.58547760   -1.80146406    1.76584750      53
Co     1.78475132   -3.56825963    1.80102037      54
Cr     1.81858408   -3.52213258   -1.83432153      55
Co     1.80280546    3.59462489   -1.78551501      56
Co    -1.81294256    3.56759085   -1.77743966      57
Co     1.78165125   -1.78328279    3.64999936      58
Cr     1.78809749    1.82034676   -3.55064256      59
Co     3.55923040   -1.78667903   -1.81720162      60
Ni    -1.76242167   -0.00498180    1.79010960      61
Ni    -1.77685647    0.03733483   -1.80851866      62
Ni     0.01782525   -1.77680415   -1.79473477      63
Ni     0.02048869   -3.56590728   -0.00117840      64
Ni     0.00724749   -0.02440356    3.60162442      65
Co    -0.00495016   -1.81185720    1.80282893      66
Cr    -1.77574000   -1.79438139   -0.00928396      67
Co     0.01074274    1.78407486    1.75806602      68
Co     0.00003825   -0.00002803    0.00016241      69
Co     1.78654506   -1.77961297   -0.02344419      70
Cr     1.78798503    1.76822028    0.00227605      71
Cr    -1.78457082    1.83014581   -0.02416185      72
Co     1.77249229   -0.01275384    1.78909422      73
Co     1.79794199    0.01041601   -1.81778417      74
Cr     0.05953587    1.80830772   -1.75954196      75
Co    -0.00719043    3.57759335    0.01511327      76
Co     0.02668124    0.04382305   -3.60557785      77
Co     3.57400735   -0.00695760   -0.02154573      78
Cr    -3.55517978    0.01329358    0.02890220      79
