          79
Lattice="  21.4578   0.0000   0.0000   0.0000  21.4578   0.0000   0.0000   0.0000  21.4578 " ConfE="      -3733.1281" DelE="          0.0000"
Ni     1.81638299    0.00554754   -5.36676323       1
Ni     0.03529515   -1.79173694   -5.36490138       2
Ni     5.39729661   -0.00330890    1.77246465       3
Ni    -1.73702536    5.37666443   -0.00587289       4
Ni    -1.76496152   -0.00420026    5.35530554       5
Ni    -5.31617150   -1.78460771   -0.01291201       6
Ni     1.77685013   -5.34995346   -0.03226041       7
Ni     3.57930373   -3.58293601   -0.04877101       8
Ni     3.58136797    3.57018282    0.02236454       9
Ni     0.03416516    3.59962909   -3.61846269      10
Ni     0.01748417   -3.57977026    3.58863337      11
Co    -1.78776417   -0.00863491   -5.34510517      12
Co    -5.30731551    0.03601949   -1.82375509      13
Co    -5.33395851   -0.00783159    1.78198517      14
Co     0.05332902    5.37815955    1.84343672      15
Co     0.03294041    1.76633335    5.34863434      16
Cr    -0.03496436   -5.39375577   -1.78448888      17
Co     5.39786729   -0.01209813   -1.82418919      18
Cr     5.39466151   -1.81067463    0.03841908      19
Co     0.06760877    5.32197848   -1.76799620      20
Cr     0.06476080   -1.76203085    5.35515979      21
Co    -0.00756501   -5.37087335    1.75713807      22
Cr     5.37823589    1.78166257   -0.01505638      23
Cr    -1.74144981   -5.36531447    0.00897028      24
Cr     1.83156585   -0.02103733    5.33720484      25
Cr    -0.03939157    1.75777119   -5.41319286      26
Cr    -5.27446088    1.80050416    0.02228080      27
Cr     1.81286679    5.36053864    0.02978082      28
Co    -3.53119129    3.58682133   -0.00369225      29
Co     3.59871727   -0.00315269    3.56595791      30
Cr    -3.51541267   -3.52993613   -0.05249877      31
Cr     3.66827120    0.03836250   -3.60022272      32
Cr    -0.00794811   -3.60406489   -3.57484093      33
Co    -3.56150446   -0.02055739    3.57091698      34
Cr     0.01555613    3.50554898    3.60411432      35
Cr    -3.55268082   -0.02052324   -3.58910878      36
Ni     1.81762625   -1.77673062   -3.60747718      37
Ni     3.60545846    1.79252942    1.79882219      38
Ni     1.77838873    1.78983532   -3.60976602      39
Ni    -1.76838016   -1.77556306    3.57637843      40
Ni     1.79718236   -3.58149298   -1.82190729      41
Ni     3.60205930   -1.76398059   -1.82442553      42
Ni    -1.76230898   -3.55493512    1.79285332      43
Co    -1.74848393    3.57923276    1.80195637      44
Cr    -1.81886772    1.75365209    3.53472574      45
Cr    -1.80041434   -1.82496547   -3.59630254      46
Co    -3.52954724   -1.77138776   -1.84528249      47
Co    -3.54745169   -1.78741652    1.75837857      48
Co     3.56579774   -1.79726949    1.75675156      49
Co    -1.75582822    3.54968552   -1.82244526      50
Cr    -3.54589926    1.81254320   -1.76881980      51
Cr    -3.54601172    1.76041673    1.78409881      52
Cr     1.83243343    1.75244275    3.58559134      53
Co    -1.76174835   -3.59816697   -1.78616729      54
Cr     1.79155503   -3.59205942    1.77823734      55
Co     1.82921502   -1.80463519    3.54603848      56
Cr     3.64530897    1.76615934   -1.81485520      57
Cr    -1.78076961    1.85157390   -3.58820784      58
Cr     1.78430266    3.57105618    1.84543829      59
Cr     1.80984641    3.54386529   -1.78684159      60
Ni     1.78868064    0.02936091   -1.81095014      61
Ni     0.00854502    1.78196927    1.77365552      62
Ni     0.01540611   -1.79071471   -1.81290906      63
Ni     0.03801692    3.59155954    0.02181529      64
Co    -1.78983847    1.80713669    0.02274429      65
Cr     0.00000000    0.00000000    0.00000000      66
Cr    -1.79523927    0.00854228   -1.75796501      67
Co    -1.75998940   -0.01476115    1.76027703      68
Cr     1.82835989   -0.00692939    1.72970479      69
Co    -1.77476635   -1.79448259   -0.03537886      70
Co     1.80384801   -1.77176360   -0.01531208      71
Co     1.81890625    1.79880689   -0.01751000      72
Cr    -0.04467685    1.82480668   -1.75004321      73
Cr     0.02633483   -1.77764867    1.73944052      74
Cr    -0.06453144    0.02444143   -3.59704474      75
Co     3.63664498    0.02256229   -0.03960266      76
Co     0.04018536    0.00883926    3.53929013      77
Co    -0.00470089   -3.56805955   -0.01719492      78
Co    -3.53605476    0.00261245   -0.03596141      79
          79
Lattice="  21.4578   0.0000   0.0000   0.0000  21.4578   0.0000   0.0000   0.0000  21.4578 " ConfE="      -3728.5290" DelE="          4.5991"
Ni     1.80149389    0.00562858   -5.34887780       1
Ni     0.02867243   -1.78746299   -5.35737403       2
Ni     5.44107561   -0.00090073    1.76536853       3
Ni    -1.74367706    5.37221439   -0.01052984       4
Ni    -1.77120430   -0.01141285    5.30874633       5
Ni    -5.34841001   -1.81314108   -0.02256737       6
Ni     1.78037977   -5.37148378   -0.03738741       7
Ni     3.61753929   -3.64871826   -0.07326581       8
Ni     3.64091945    3.61653704    0.00836927       9
Ni     0.03503482    3.57646898   -3.58184924      10
Ni    -0.00474418   -3.58990936    3.56481838      11
Co    -1.78030298   -0.00659175   -5.33133078      12
Co    -5.34498505    0.01354766   -1.84346809      13
Co    -5.37461909   -0.03299132    1.78030433      14
Co     0.04705063    5.39060756    1.83907870      15
Co    -0.05435602    1.75910615    5.40879939      16
Cr    -0.05376553   -5.42780670   -1.79940811      17
Co     5.41333393   -0.03148722   -1.83791856      18
Cr     5.40190042   -1.83165433    0.03326761      19
Co     0.06419453    5.32909446   -1.76867435      20
Cr     0.03979971   -1.75356908    5.28338328      21
Co    -0.01182854   -5.37825945    1.75695346      22
Cr     5.45103988    1.78837631   -0.09255487      23
Cr    -1.76665623   -5.39999472   -0.00100209      24
Cr     1.82113464   -0.14265951    5.32740310      25
Cr    -0.04765612    1.74775668   -5.39144397      26
Cr    -5.29644792    1.79059467   -0.00486024      27
Cr     1.83342941    5.38158413    0.01104970      28
Co    -3.61018073    3.66135575   -0.02185265      29
Co     3.55540480    0.09614470    3.54714582      30
Cr    -3.55151148   -3.55817704   -0.07730989      31
Cr     3.65496960    0.02880915   -3.58625060      32
Cr    -0.02855452   -3.62219328   -3.58967211      33
Co    -3.60163701   -0.03084168    3.56873000      34
Cr     0.04997839    3.39761887    3.50063785      35
Cr    -3.52981900   -0.05102551   -3.57591029      36
Ni     1.80737617   -1.78847200   -3.59257800      37
Ni     3.88249946    1.89719265    1.73572025      38
Ni     1.76884593    1.77340411   -3.56403259      39
Ni    -1.79551180   -1.78294806    3.55929443      40
Ni     1.80347913   -3.69457113   -1.91302981      41
Ni     3.62894726   -1.78279348   -1.84971410      42
Ni    -1.81521240   -3.60121955    1.77623967      43
Co    -1.73345273    3.51646529    1.75188062      44
Cr    -1.77613082    1.72272295    3.41056095      45
Cr    -1.79522342   -1.83389260   -3.58055814      46
Co    -3.53096742   -1.77793646   -1.85295700      47
Co    -3.58994381   -1.83333043    1.74661267      48
Co     3.56860043   -1.76545577    1.72986274      49
Co    -1.76297354    3.55525547   -1.81812413      50
Cr    -3.63526245    1.80112989   -1.87799370      51
Cr    -3.61867098    1.75864691    1.79359814      52
Cr     1.92634325    1.96572580    4.31028822      53
Co    -1.78309873   -3.61926289   -1.79231777      54
Cr     1.77764857   -3.54017137    1.74671554      55
Co     1.80096998   -1.78147109    3.46491294      56
Cr     3.67528164    1.75659857   -1.81931404      57
Cr    -1.76731052    1.83734268   -3.54288645      58
Cr     1.82546511    3.67381649    1.83097530      59
Cr     1.81424076    3.55710348   -1.77200151      60
Ni     1.76752094    0.01169159   -1.75294584      61
Ni    -0.18689723    1.36671454    1.03646347      62
Ni     0.00508756   -1.80475124   -1.79310867      63
Ni     0.06600332    3.61173842    0.03521017      64
Co    -2.11958793    1.84238189   -0.10958546      65
Cr     1.55489291   -0.45972222    1.19465890      66
Cr    -1.71605642    0.00887878   -1.64575051      67
Co    -1.90427842   -0.06286168    1.74971800      68
Cr     1.73339117    1.33953440    2.28768067      69
Co    -1.76246377   -1.76154058   -0.04099662      70
Co     1.84423751   -2.02520317   -0.21488925      71
Co     1.95091340    1.85586868   -0.08373374      72
Cr    -0.05922631    1.77368835   -1.65399452      73
Cr    -0.13348815   -1.86781651    1.66827066      74
Cr    -0.07346463    0.01667871   -3.54062494      75
Co     3.66709493    0.00851440   -0.03565671      76
Co     0.07842746    0.08176856    3.44387034      77
Co    -0.04527413   -3.65359646   -0.05004805      78
Co    -3.62947469   -0.03786884   -0.05879324      79
          79
Lattice="  21.4578   0.0000   0.0000   0.0000  21.4578   0.0000   0.0000   0.0000  21.4578 " ConfE="      -3732.9278" DelE="          0.2003"
Ni     1.81202317    0.00608501   -5.36159628       1
Ni     0.03393101   -1.78875685   -5.35815688       2
Ni     5.39971699   -0.00323450    1.77220658       3
Ni    -1.73779224    5.38206282   -0.00422632       4
Ni    -1.76895342   -0.00602680    5.35476686       5
Ni    -5.31638380   -1.78632756   -0.01449450       6
Ni     1.77930612   -5.35360993   -0.03321826       7
Ni     3.57899665   -3.58432153   -0.04826406       8
Ni     3.58658822    3.57415329    0.02051753       9
Ni     0.03289565    3.59794240   -3.61732670      10
Ni     0.01846853   -3.57760512    3.58351558      11
Co    -1.78481814   -0.01094037   -5.33668060      12
Co    -5.29836597    0.03889186   -1.82091824      13
Co    -5.33669384   -0.01162277    1.78099278      14
Co     0.05186225    5.37027042    1.84142719      15
Co     0.03210929    1.76617246    5.33682920      16
Cr    -0.03437005   -5.39660408   -1.78735359      17
Co     5.39297933   -0.01240109   -1.82169761      18
Cr     5.39593662   -1.81540678    0.03820094      19
Co     0.06562859    5.32233304   -1.76898538      20
Cr     0.06378237   -1.75743624    5.34272503      21
Co    -0.00632271   -5.36653937    1.75570780      22
Cr     5.38130288    1.78563512   -0.01333167      23
Cr    -1.74455067   -5.36698031    0.00720704      24
Cr     1.83203615   -0.02241377    5.33730292      25
Cr    -0.04023253    1.75721002   -5.40571564      26
Cr    -5.28123860    1.80314563    0.02099820      27
Cr     1.81353474    5.36138611    0.03168806      28
Co    -3.52117886    3.57944366    0.00468523      29
Co     3.59830791   -0.00317267    3.56003651      30
Cr    -3.52199106   -3.54118316   -0.05474457      31
Cr     3.67899026    0.03691504   -3.61047404      32
Cr    -0.01091353   -3.61174463   -3.57936496      33
Co    -3.55814625   -0.01910845    3.56395812      34
Cr     0.01253866    3.50812232    3.60367532      35
Cr    -3.55486073   -0.01880266   -3.59149571      36
Ni     1.81445967   -1.77457755   -3.60211914      37
Ni     3.60697789    1.79425340    1.79621567      38
Ni     1.77892114    1.78898045   -3.60551275      39
Ni    -1.76684819   -1.77499750    3.56623386      40
Ni     1.79428407   -3.58118430   -1.82074446      41
Ni     3.59987257   -1.76287493   -1.82231921      42
Ni    -1.76024969   -3.55097346    1.78410285      43
Co    -1.73918396    3.57402173    1.80290470      44
Cr    -1.82258774    1.75074101    3.52613258      45
Cr    -1.80690439   -1.82861459   -3.59396476      46
Co    -3.52775888   -1.77172169   -1.84359004      47
Co    -3.54862484   -1.78871718    1.75556797      48
Co     3.57775027   -1.80510869    1.76188444      49
Co    -1.75340767    3.55089224   -1.81448956      50
Cr    -3.52531468    1.81844944   -1.74515053      51
Cr    -3.56489372    1.76151269    1.78062615      52
Cr     1.85715354    1.75888658    3.60674109      53
Co    -1.76576684   -3.60560753   -1.78998703      54
Cr     1.79403334   -3.59830105    1.78096283      55
Co     1.83255228   -1.80446885    3.54595903      56
Cr     3.65124852    1.77225271   -1.81459019      57
Cr    -1.79135166    1.85263457   -3.59307289      58
Cr     1.78902645    3.56832019    1.84447194      59
Cr     1.81285044    3.54356451   -1.78889731      60
Ni     1.80449477    0.03229134   -1.81936315      61
Ni     0.04157322   -0.00061450   -0.02387708      62
Ni     0.01418085   -1.79753702   -1.81416613      63
Ni     0.03886129    3.59009734    0.02381731      64
Co    -1.76718730    1.80266123    0.04410756      65
Cr     1.83791163   -0.00036132    1.74131115      66
Cr    -1.79405968    0.01070932   -1.74826041      67
Co    -1.74725174   -0.00305460    1.76386431      68
Cr     0.05387003    1.76959302    1.78931969      69
Co    -1.77710719   -1.79770195   -0.03330478      70
Co     1.81694011   -1.78502332   -0.00426626      71
Co     1.82589883    1.81070421   -0.01991512      72
Cr    -0.05382124    1.82901027   -1.76584634      73
Cr     0.03840701   -1.78950002    1.73712958      74
Cr    -0.06963195    0.02794332   -3.57705214      75
Co     3.64076922    0.02265217   -0.03349037      76
Co     0.04024909    0.01512851    3.53484567      77
Co    -0.00640899   -3.58542362   -0.02364806      78
Co    -3.53693335    0.00474427   -0.02853663      79
